CM 
CM forw: 86, 0 ; back: 86, 180
CE
SY freq=433.05
SY R=0.353499
SY RD=0.165907
SY D=0.300608
SY DD1=0.254642
SY D1=0.295852
SY wrad=0.5*3*1e-3
SY H=2
GW	1	9	0	D/2	H	0	-D/2	H	wrad
GW	2	9	-RD	R/2	H	-RD	-R/2	H	wrad
GW	3	9	DD1	D1/2	H	DD1	-D1/2	H	wrad
GE	1
LD	5	0	0	0	30800000
GN	2	0	0	0	17	0.015
EK
EX	0	1	5	0	1	0	0
FR,0,1,0,0,433.05
PQ -1
PT -1
RP,0,36,73,1000,-89,0,5,5
