CM 
CM forw: 84, 0 ; back: 84, 180
CE
SY freq=28.1
SY L=5.450792
SY W=1.60979
SY H=20
GW	1	1	0	-0.05	H	0	0.05	H	0.001
GW	2	10	0	-0.05	H	0	-W/2	H+L/2	0.001
GW	3	10	0	-W/2	H+L/2	0	0	H+L	0.001
GW	4	10	0	0.05	H	0	W/2	H+L/2	0.001
GW	5	10	0	W/2	H+L/2	0	0	H+L	0.001
GE	1
LD	5	0	0	0	58000000
GN	2	0	0	0	17	0.015
EK
EX	0	1	1	0	1	0	0
FR,0,1,0,0,28.1
PQ -1
PT -1
