CM 
CM forw: 81, 0 ; back: 81, 180
CE
SY freq=21.08
SY L=6.680231
SY W=3.493813
SY H=20
GW	1	1	0	-0.05	H	0	0.05	H	0.001
GW	2	10	0	-0.05	H	0	-W/2	H+L/2	0.001
GW	3	10	0	-W/2	H+L/2	0	0	H+L	0.001
GW	4	10	0	0.05	H	0	W/2	H+L/2	0.001
GW	5	10	0	W/2	H+L/2	0	0	H+L	0.001
GE	1
LD	5	0	0	0	58000000
GN	2	0	0	0	17	0.015
EK
EX	0	1	1	0	1	0	0
FR,0,1,0,0,21.08
PQ -1
PT -1
