CM 
CM forw: 81, 0 ; back: 81, 180
CE
SY freq=21.08
SY K=14.33419
SY C=0.50357
SY L=K/((2*C)+ 2)
SY W=L*C
SY H=24-L
SY wrad=0.5*1.8*1e-3
SY irad=0.5*3.5*1e-3
GW	1	5	0	-W/2	H	0	W/2	H	wrad
GW	2	5	0	-W/2	L+H	0	W/2	L+H	wrad
GW	3	15	0	-W/2	H	0	-W/2	L+H	wrad
GW	4	15	0	W/2	H	0	W/2	L+H	wrad
GE	1
LD	5	0	0	0	58000000
LD	7	0	0	0	4.5	irad
GN	2	0	0	0	17	0.015
EK
EX	0	1	3	0	1	0	0
FR,0,1,0,0,21.08
PQ -1
PT -1
