CM 
CM forw: 69, 0 ; back: 69, 180
CE
SY freq=1.825	'14.1 21.15 28.3
SY H=20
SY C=5.14366
SY N=8
GW	1	20	0	0	0	0	0	H
GC	0	0	1	0.1	0.025
GW	2	6	0	0	H	C	0	H
GC	0	0	1	0.0125	0.00625
GM	1	N-1	0	0	360/N	0	0	0	2
GW	3+N	2	C	0	H	C*cos(360/N)	C*sin(360/N)	H
GC	0	0	1	0.0015	0.0015
GM	1	N-1	0	0	360/N	0	0	0	3+N
GE	1
LD	5	0	0	0	30800000
GN	0	30	0	0	17	0.015	10	1.e-9
EK
EX	0	1	1	0	1	0	0
FR,0,1,0,0,1.825
PQ -1
PT -1
