CM 
CM forw: 77, 0 ; back: 77, 180
CE
SY freq=14.1
SY H=22
SY L1=6.488042
SY TL=6.235065
GW	1	39	0	-L1	H	0	L1	H	0.001
GW	2	1	0	-0.05	H-TL	0	0.05	H-TL	0.001
GE	1
LD	5	0	0	0	58000000
LD	7	0	0	0	4.5	0.002
GN	2	0	0	0	17	0.015
EK
EX	0	2	1	0	1	0	0
TL	1	20	2	1	300	TL	0	0	0	0
FR,0,1,0,0,14.1
PQ -1
PT -1
