CM 
CM forw:-77, 204 ; back:-77, 24
CE
SY freq=14.1
SY H=7
SY R=1.335389
SY B=6
SY sp=0.3
GW	1	10	0	0	B	0	0	B+H	0.001
GW	2	5	0	0	B	0	R	B	0.001
GW	3	1	0	R	B	sp	R	B	0.001
GW	4	10	sp	-R	B	sp	R	B	0.001
GW	5	8	0	0	0	0	0	B	0.001
GE	1
LD	5	0	0	0	58000000
LD	4	5	1	0	10
LD	4	5	8	0	0	3000
GN	2	0	0	0	17	0.015
EK
EX	0	1	1	0	1	0	0
FR,0,1,0,0,14.1
PQ -1
PT -1
