CM 
CM forw: 55, 0 ; back: 55, 180
CE
SY freq=3.7
SY H=35
SY L=30
SY B=14.09317
SY S=17.14502
SY B2=11.94681
GW	4	15	0	-L/2	H	0	L/2	H	0.001
GW	1	1	0	-0.5	B	0	0.5	B	0.001
GW	2	15	0	-0.5	B	0	-L/2	H	0.001
GW	3	15	0	0.5	B	0	L/2	H	0.001
GW	5	15	-S	-L/2	H	-S	L/2	H	0.001
GW	6	15	-S	0	B2	-S	-L/2	H	0.001
GW	7	15	-S	0	B2	-S	L/2	H	0.001
GE	-1
LD	5	0	0	0	30800000
GN	2	0	0	0	17	0.015
EK
EX	0	1	1	0	1	0	0
FR,0,1,0,0,3.7
PQ -1
PT -1
RP,0,19,73,1003,-90,0,5,5
