CM 
CM forw: 0, 0 ; back: 0, 180
CE
SY freq=10.12
SY B=4
SY h1=10
SY r1=10
SY h2=7.5
SY r2=6.822662
GW	1	19	0	-r2	B	0	r2	B	0.001
GE	1
LD	5	0	0	0	58000000
LD	7	0	0	0	4.5	0.002
GN	2	0	0	0	17	0.015
EK
EX	0	1	10	0	1	0	0
FR,0,1,0,0,10.12
PQ -1
PT -1
