CM 
CM forw: 73, 0 ; back: 73, 180
CE
SY freq=10.12
SY B=4
SY h1=10
SY r1=10
SY h2=8.8861
SY r2=4.111362
GW	1	10	0	0	B	0	0	B+h2	0.001
GW	2	10	0	0	B	0	r2	B	0.001
GW	3	10	0	0	B	0	-r2	B	0.001
GE	1
LD	5	0	0	0	58000000
LD	7	0	0	0	4.5	0.002
GN	2	0	0	0	17	0.015
EK
EX	0	1	1	0	1	0	0
FR,0,1,0,0,10.12
PQ -1
PT -1
