CM 
CM forw: 72, 38 ; back: 72, 218
CE
SY freq=10.12
SY B=4
SY h1=10
SY c1=1
SY r1=h1*c1
SY h2=6.976699
SY c2=1
SY r2=h2*c2
SY s=0.15
GW	1	10	0	0	B	0	0	B+h2	0.001
GW	2	1	0	0	B+h2	0	s	B+h2+s	0.001
GW	3	3	0	0	B+h2+s	0	-s	B+h1	0.001
GW	7	int(r1)	0	0	B	r1	0	B	0.001
GW	8	int(r2)	0	0	B	0.707*r2	0.707*r2	B	0.001
GM	8	3	0	0	90	0	0	0	7
GE	1
LD	5	0	0	0	58000000
LD	7	0	0	0	4.5	0.002
LD	0	2	1	0	0	5e-6
GN	2	0	0	0	17	0.015
EK
EX	0	1	1	0	1	0	0
FR,0,1,0,0,10.12
PQ -1
PT -1
