CM 
CM forw: 69, 0 ; back: 69, 180
CE
SY freq=10.12
SY L=10.34461
SY W=10.756
SY H=24-L
SY wrad=0.5*1.8*1e-3
SY irad=0.5*3.5*1e-3
GW	1	1	0	-0.05	H	0	0.05	H	wrad
GW	2	10	0	-0.05	H	0	-W/2	H+L/2	wrad
GW	3	10	0	-W/2	H+L/2	0	0	H+L	wrad
GW	4	10	0	0.05	H	0	W/2	H+L/2	wrad
GW	5	10	0	W/2	H+L/2	0	0	H+L	wrad
GE	1
LD	5	0	0	0	58000000
LD	7	0	0	0	4.5	irad
GN	2	0	0	0	17	0.015
EK
EX	0	1	1	0	1	0	0
FR,0,1,0,0,10.12
PQ -1
PT -1
