CM 
CM forw: 73, 0 ; back: 73, 180
CE
SY freq=10.12
SY H=24
SY lambda=300/freq
SY vfc=0.85
SY LC=lambda*0.25*vfc
SY cwr=0.005/2
SY cir=0.0075/2
SY LW=0.756361
SY wwr=0.0015/2
SY wir=wwr*2
GW	1	19	0	LC	H	0	-LC	H	cwr
GW	2	4	0	LC	H	0	LC+LW	H	wwr
GW	3	4	0	-LC	H	0	-LC-LW	H	wwr
GE	1
LD	5	0	0	0	58000000
LD	7	1	0	0	4.5	cir
LD	7	2	0	0	4.5	wir
LD	7	3	0	0	4.5	wir
GN	2	0	0	0	17	0.015
EK
EX	0	1	10	0	1	0	0
FR,0,1,0,0,10.12
PQ -1
PT -1
