CM 
CM forw: 77, 0 ; back: 77, 180
CE
SY freq=166
SY wrad=0.5*5*1e-3
SY D=0.824757
SY R=0.888384
SY Dir=0.791537
SY RD=0.352436
SY DDir=0.300324
SY h=2
GW	1	19	0	-D/2	h	0	D/2	h	wrad
GW	2	19	-RD	-R/2	h	-RD	R/2	h	wrad
GW	3	19	DDir	-Dir/2	h	DDir	Dir/2	h	wrad
GE	1
GN	2	0	0	0	17	0.015
EK
EX	0	1	10	0	1	0	0
FR,0,1,0,0,166
PQ -1
PT -1
RP,0,36,73,1003,-88,0,5,5
