CM 
CM forw: 70, 88 ; back: 70, 268
CE
SY freq=7.1
SY H=10.67
SY S=15
SY g=2
SY ph=12.96871
GW	1	30	0	0	H+g	0	0	g	0.8e-3
GW	2	30	s	0	H+g	s	0	g	0.8e-3
GW	3	35	0	0	H+g	s	0	H+g	0.8e-3
GW	4	1	(s/2)-0.1	0	H+G-ph	(s/2)+0.1	0	H+g-ph	0.8e-3
GE	1
LD	5	0	0	0	58000000
GN	2	0	0	0	17	0.015
EK
EX	0	1	1	0	1	0	0
TL	4	1	3	18	450	ph	1e+99	1e+99	0	0
FR,0,1,0,0,7.1
PQ -1
PT -1
