CM 
CM forw: 60, 0 ; back: 60, 180
CE
SY freq=7.1
SY H=22
SY sp=0.4
SY L1=9.10601
SY L2=10.38979
GW	1	3	sp/2	0	H	-sp/2	0	H	0.001
GW	2	10	sp/2	0	H	sp/2	-L1	H	0.001
GW	3	10	sp/2	0	H	sp/2	L1	H	0.001
GW	4	2	sp/2	L1	H	sp/2	L2	H	0.001
GW	5	10	-sp/2	0	H	-sp/2	L1	H	0.001
GW	6	10	-sp/2	0	H	-sp/2	-L1	H	0.001
GW	7	2	-sp/2	-L1	H	-sp/2	-L2	H	0.001
GE	1
LD	5	0	0	0	58000000
LD	7	0	0	0	4.5	0.002
GN	2	0	0	0	17	0.015
EK
EX	0	1	2	0	1	0	0
FR,0,1,0,0,7.1
PQ -1
PT -1
