CM 
CM forw: 51, 0 ; back: 51, 180
CE
SY freq=7.1
SY theta=45.0826
SY H=18
SY L=10.10891
SY dy=L*cos(theta)
SY dz=L*sin(theta)
GW	1	10	0	0	H	0	dy	H-dz	0.001
GW	2	10	0	0	H	0	-dy	H-dz	0.001
GE	1
LD	5	0	0	0	58000000
LD	7	0	0	0	4.5	0.002
GN	2	0	0	0	17	0.015
EK
EX	0	1	1	0	1	0	0
FR,0,1,0,0,7.1
PQ -1
PT -1
