CM 
CM forw: 73, 79 ; back: 73, 259
CE
SY freq=7.1
SY H=12.80074
SY R=7
SY B=6
SY X=0
SY Y=0
GW	1	10	0	0	B	0	0	B+H	0.001
GW	2	10	0	0	B	R*cos(20)*cos(0)	R*cos(20)*sin(0)	B-R*sin(20)	0.001
GW	3	10	0	0	B	R*cos(20)*cos(180)	R*cos(20)*sin(180)	B-R*sin(20)	0.001
GW	5	8	0	0	0	0	0	B	0.005
GE	1
LD	5	0	0	0	58000000
LD	4	5	1	1	10
LD	4	5	8	8	0	3000
GN	2	0	0	0	17	0.015
EK
EX	0	1	1	0	1	0	0
FR,0,1,0,0,7.1
PQ -1
PT -1
