CM 
CM forw: 63, 0 ; back: 63, 180
CE
SY freq=7.1
SY H=24
SY L=10.0203
SY wrad=0.0018/2	'diameter=1.8 mm
SY irad=0.0035/2	'diameter=3.5 mm
SY theta=60
GW	1	1	0	-0.1	H	0	0.1	H	wrad
GW	2	20	0	0.1	H	0	L*sin(theta)	H-L*cos(theta)	wrad
GW	3	20	0	-0.1	H	0	-L*sin(theta)	H-L*cos(theta)	wrad
GE	1
LD	5	0	0	0	58000000
LD	7	0	0	0	4.5	irad
GN	2	0	0	0	17	0.015
EK
EX	0	1	1	0	1	0	0
FR,0,1,0,0,7.1
PQ -1
PT -1
