CM 
CM forw: 63, 0 ; back: 63, 180
CE
SY freq=7.1
SY H=22
SY L=9.512146	'9.953
SY Zo=50
SY TL=20
SY ch=0.208257
GW	1	39	0	-L	H	0	L	H	0.001
GW	2	1	0	-L	H	-ch	-L	H	0.001
GW	3	1	0	-L	H	ch	-L	H	0.001
GW	4	1	0	L	H	-ch	L	H	0.001
GW	5	1	0	L	H	ch	L	H	0.001
GW	6	1	0	-0.05	1	0	0.05	1	0.001
GE	1
LD	5	0	0	0	58000000
LD	7	0	0	0	4.5	0.002
GN	2	0	0	0	17	0.015
EK
EX	0	1	20	0	1	0	0
FR,0,1,0,0,7.1
PQ -1
PT -1
