CM 
CM forw: 64, 0 ; back: 64, 180
CE
SY freq=7.1
SY H=24
SY L=10.037
SY wrad=0.0018/2	'diameter=1.8 mm
SY irad=0.0035/2	'diameter=3.5 mm
SY theta=60
SY alpha=50
GW	1	7	0.1732051	0	0	0.1732051	0	4	7.e-3
GW	2	7	-0.086603	-0.15	0	-0.086603	-0.15	4	7.e-3
GW	3	7	-0.086603	0.15	0	-0.086603	0.15	4	7.e-3
GW	4	1	0.1732051	0	4	-0.086603	-0.15	4	7.e-3
GW	5	1	-0.086603	-0.15	4	-0.086603	0.15	4	7.e-3
GW	6	1	-0.086603	0.15	4	0.1732051	0	4	7.e-3
GW	7	7	0.1732051	0	4	0.1732051	0	8	7.e-3
GW	8	7	-0.086603	-0.15	4	-0.086603	-0.15	8	7.e-3
GW	9	7	-0.086603	0.15	4	-0.086603	0.15	8	7.e-3
GW	10	1	0.1732051	0	8	-0.086603	-0.15	8	7.e-3
GW	11	1	-0.086603	-0.15	8	-0.086603	0.15	8	7.e-3
GW	12	1	-0.086603	0.15	8	0.1732051	0	8	7.e-3
GW	13	7	0.1732051	0	8	0.1732051	0	12	7.e-3
GW	14	7	-0.086603	-0.15	8	-0.086603	-0.15	12	7.e-3
GW	15	7	-0.086603	0.15	8	-0.086603	0.15	12	7.e-3
GW	16	1	0.1732051	0	12	-0.086603	-0.15	12	7.e-3
GW	17	1	-0.086603	-0.15	12	-0.086603	0.15	12	7.e-3
GW	18	1	-0.086603	0.15	12	0.1732051	0	12	7.e-3
GW	19	7	0.1732051	0	12	0.1732051	0	16	7.e-3
GW	20	7	-0.086603	-0.15	12	-0.086603	-0.15	16	7.e-3
GW	21	7	-0.086603	0.15	12	-0.086603	0.15	16	7.e-3
GW	22	1	0.1732051	0	16	-0.086603	-0.15	16	7.e-3
GW	23	1	-0.086603	-0.15	16	-0.086603	0.15	16	7.e-3
GW	24	1	-0.086603	0.15	16	0.1732051	0	16	7.e-3
GW	25	7	0.1732051	0	16	0.1732051	0	20	7.e-3
GW	26	7	-0.086603	-0.15	16	-0.086603	-0.15	20	7.e-3
GW	27	7	-0.086603	0.15	16	-0.086603	0.15	20	7.e-3
GW	28	1	0.1732051	0	20	-0.086603	-0.15	20	7.e-3
GW	29	1	-0.086603	-0.15	20	-0.086603	0.15	20	7.e-3
GW	30	1	-0.086603	0.15	20	0.1732051	0	20	7.e-3
GW	31	7	0.1732051	0	20	0.1732051	0	24	7.e-3
GW	32	7	-0.086603	-0.15	20	-0.086603	-0.15	24	7.e-3
GW	33	7	-0.086603	0.15	20	-0.086603	0.15	24	7.e-3
GW	34	1	0.1732051	0	24	-0.086603	-0.15	24	7.e-3
GW	35	1	-0.086603	-0.15	24	-0.086603	0.15	24	7.e-3
GW	36	1	-0.086603	0.15	24	0.1732051	0	24	7.e-3
GW	37	9	4	0	0	0.1732051	0	4	2.e-3
GW	38	9	-2	-3.4641016	0	-0.086603	-0.15	4	2.e-3
GW	39	9	-2	3.464102	0	-0.086603	0.15	4	2.e-3
GW	40	13	4	0	0	0.1732051	0	8	2.e-3
GW	41	13	-2	-3.4641016	0	-0.086603	-0.15	8	2.e-3
GW	42	13	-2	3.464102	0	-0.086603	0.15	8	2.e-3
GW	43	19	4	0	0	0.1732051	0	12	2.e-3
GW	44	19	-2	-3.4641016	0	-0.086603	-0.15	12	2.e-3
GW	45	19	-2	3.464102	0	-0.086603	0.15	12	2.e-3
GW	46	23	4	0	0	0.1732051	0	16	2.e-3
GW	47	23	-2	-3.4641016	0	-0.086603	-0.15	16	2.e-3
GW	48	23	-2	3.464102	0	-0.086603	0.15	16	2.e-3
GW	49	29	5	0	0	0.1732051	0	20	2.e-3
GW	50	29	-2.5	-4.330127	0	-0.086603	-0.15	20	2.e-3
GW	51	29	-2.5	4.330127	0	-0.086603	0.15	20	2.e-3
GW	52	35	5	0	0	0.1732051	0	24	2.e-3
GW	53	35	-2.5	-4.330127	0	-0.086603	-0.15	24	2.e-3
GW	54	35	-2.5	4.330127	0	-0.086603	0.15	24	2.e-3
GW	55	1	0.1732051	0	24	0.1732051	0	25	7.e-3
GW	56	1	-0.086603	-0.15	24	-0.086603	-0.15	25	7.e-3
GW	57	1	-0.086603	0.15	24	-0.086603	0.15	25	7.e-3
GW	58	1	0.1732051	0	25	-0.086603	-0.15	25	7.e-3
GW	59	1	-0.086603	-0.15	25	-0.086603	0.15	25	7.e-3
GW	60	1	-0.086603	0.15	25	0.1732051	0	25	7.e-3
GW	61	1	0	0	25	0	0	25.5	0.025
GW	62	7	0	0	25.5	0	0	29.5	0.025
GW	63	3	0	0	25.5	2	0	25.5	0.025
GW	64	3	0	0	25.5	-2	0	25.5	0.025
GW	65	5	2	0	25.5	2	-3	25.5	0.025
GW	66	3	2	0	25.5	2	2	25.5	0.025
GW	67	5	-2	0	25.5	-2	-3	25.5	0.025
GW	68	3	-2	0	25.5	-2	2	25.5	0.025
GW	100	1	0.25	-0.1	H	0.25	0.1	H	wrad
GW	101	10	0.25	-0.1	H	L*cos(theta)*sin(alpha)	-L*sin(theta)	H-(L*cos(theta)*cos(alpha))	wrad
GW	102	10	0.25	0.1	H	L*cos(theta)*sin(alpha)	L*sin(theta)	H-(L*cos(theta)*cos(alpha))	wrad
GE	1
LD	5	100	0	0	58000000
LD	5	101	0	0	58000000
LD	5	102	0	0	58000000
LD	7	100	0	0	4.5	irad
LD	7	101	0	0	4.5	irad
LD	7	102	0	0	4.5	irad
GN	2	0	0	0	17	0.015
EK
EX	0	100	1	0	1	0	0
FR,0,1,0,0,7.1
PQ -1
PT -1
