CM 
CM forw: 63, 0 ; back: 63, 180
CE
SY freq=7.1
SY H=22
SY theta=28.00996
SY L=10.335
SY L1=L
SY L2=9
SY sp=0.5
GW	1	39	0	-L	H	0	L	H	0.001
GE	1
LD	5	0	0	0	58000000
LD	7	0	0	0	4.5	0.002
GN	2	0	0	0	17	0.015
EK
EX	0	1	20	0	1	0	0
FR,0,1,0,0,7.1
PQ -1
PT -1
