CM 
CM forw: 59, 177 ; back: 59, 357
CE
SY freq=6.9
SY H=22
SY sp=0.6
SY L1=9.453366
SY L2=10.99065
SY the=30
GW	1	3	sp/2	0	H	-sp/2	0	H	0.001
GW	2	10	sp/2	0	H	sp/2	-L1*cos(the)	H-L1*sin(the)	0.001
GW	3	10	sp/2	0	H	sp/2	L1*cos(the)	H-L1*sin(the)	0.001
GW	4	2	sp/2	L1*cos(the)	H-L1*sin(the)	sp/2	L2*cos(the)	H-L2*sin(the)	0.001
GW	5	10	-sp/2	0	H	-sp/2	L1*cos(the)	H-L1*sin(the)	0.001
GW	6	10	-sp/2	0	H	-sp/2	-L1*cos(the)	H-L1*sin(the)	0.001
GW	7	2	-sp/2	-L1*cos(the)	H-L1*sin(the)	-sp/2	-L2*cos(the)	H-L2*sin(the)	0.001
GE	1
LD	5	0	0	0	58000000
GN	2	0	0	0	17	0.015
EK
EX	0	1	1	0	1	0	0
FR,0,1,0,0,6.9
PQ -1
PT -1
