CM 
CM forw: 81, 48 ; back: 81, 228
CE
SY freq=21.1
SY H=22
SY L1=1.769147
SY L2=10.269
SY T=0.746642
GW	1	19	0	-L1	H	0	L1	H	0.001
GW	2	10	0	-L1	H	0	-L2	H	0.001
GW	3	10	0	L1	H	0	L2	H	0.001
GW	4	2	0	-L1	H	0	-L1	H-T	0.001
GW	5	2	0	L1	H	0	L1	H-T	0.001
GE	1
LD	5	0	0	0	58000000
LD	7	0	0	0	4.5	0.001
GN	2	0	0	0	17	0.015
EK
EX	0	1	10	0	1	0	0
FR,0,1,0,0,21.1
PQ -1
PT -1
