CM 
CM forw: 36, 0 ; back: 36, 180
CE
SY freq=7.1
SY theta=36.02806
SY H=10
SY L=9.81843
SY dy=L*cos(theta)
SY dz=L*sin(theta)
SY G=8.318601
SY rf=1.039233
SY dyy=dy*rf
SY dzz=dz*rf
GW	1	10	G/2	0	H	G/2	dy	H-dz	0.001
GW	2	10	G/2	0	H	G/2	-dy	H-dz	0.001
GW	3	10	-G/2	0	H	-G/2	dyy	H-dzz	0.001
GW	4	10	-G/2	0	H	-G/2	-dyy	H-dzz	0.001
GE	1
LD	5	0	0	0	58000000
LD	7	0	0	0	4.5	0.002
GN	2	0	0	0	17	0.015
EK
EX	0	1	1	0	1	0	0
EX	0	2	1	0	-1	0	0
FR,0,1,0,0,7.1
PQ -1
PT -1
RP,0,36,73,1003,-89,0,5,5
