CM 
CM forw: 69, 0 ; back: 69, 180
CE
SY freq=7.1
SY H=30
SY theta=40
SY L=12.94833
GW	1	11	0	0	H-L*cos(theta)	0	L*sin(theta)	H	0.001
GW	2	11	0	0	H-L*cos(theta)	0	-L*sin(theta)	H	0.001
GW	3	11	0	L*sin(theta)	H	0	-L*sin(theta)	H	0.001
GE	1
LD	5	0	0	0	58000000
LD	7	0	0	0	4.5	0.002
GN	2	0	0	0	17	0.015
EK
EX	0	1	1	0	1	0	0
EX	0	2	1	0	-1	0	0
FR,0,1,0,0,7.1
PQ -1
PT -1
