CM 
CM forw:-66, 0 ; back: 66, 0
CE
SY freq=3.525
SY H=3
SY L=42*ft	'10.67
SY R=7
SY NR=16
SY CH=2
SY N=4
GW	1	30	0	0	H	0	0	H+L	1e-3
GW	2	5	0	0	H+L	0	CH	H+L	3e-3
GM	1	N-1	0	0	360/N	0	0	0	2
GW	2+N	int(R*30/L)	0	0	H	0	R	H	0.3e-3
GM	1	NR	0	0	180/NR	0	0	0	2+N
GE	1
LD	5	0	0	0	58000000
GN	2	0	0	0	13	0.005
EK
EX	0	1	1	0	1	0	0
FR,0,1,0,0,3.525
PQ -1
PT -1
RP,0,61,1,1000,-90,0,3
