CM 
CM forw: 83, 0 ; back: 83, 180
CE
SY freq=1.83
SY C=21.05/freq
SY cf=0.990983
SY B=2	'1*C*cf
SY H=3.904702*C*cf
SY R=2.340136*C*cf
SY w=0.0008
SY ins=0.0019
GW	1	10	0	0	B	0	0	B+H	w
GW	2	10	0	0	B	0	R	B	w
GW	3	10	0	0	B	0	-R	B	w
GE	1
LD	5	0	0	0	58000000
LD	7	0	0	0	4.5	ins
GN	2	0	0	0	81	5.0
EK
EX	0	1	1	0	1	0	0
FR,0,1,0,0,1.83
PQ -1
PT -1
