CM 
CM forw: 82, 0 ; back:-82, 0
CE
SY freq=21.2	'14.15 18.08 21.2 28.4
SY H=25
SY TL=50
SY L1=10.16
SY L2=8.08
SY L3=7.1
SY s=0.2
GW	1	19	0	-L1/2	H	0	L1/2	H	10e-3
GW	2	17	0	-L2/2	H-s	0	L2/2	H-s	10e-3
GW	3	15	0	-L3/2	H+s	0	L3/2	H+s	10e-3
GE	1
LD	5	0	0	0	24900000
GN	2	0	0	0	17	0.015
EK
EX	0	1	10	0	1	0	0
TL	1	10	2	9	TL	s	0	0	0	0
TL	1	10	3	8	TL	s	0	0	0	0
FR,0,1,0,0,21.2
PQ -1
PT -1
RP,0,91,1,1000,-90,0,2
