CM 
CM forw: 62, 262 ; back:-62, 262
CE
SY freq=3.525
SY H=8
SY L=15
GW	1	20	0	0	0	0	0	H	0.8e-3
GW	2	20	0	0	H	0	L	H	0.8e-3
GE	1
LD	5	0	0	0	58000000
GN	0	32	0	0	13	0.005	10	1.e-3
EK
EX	0	1	1	0	1	0	0
FR,0,1,0,0,3.525
PQ -1
PT -1
RP,4,91,1,1000,-90,262,2
