CM 
CM forw: 0, 0 ; back: 0, 180
CE
SY freq=3.6
SY H=20
SY L=19.372
SY TL1=9.686
SY TL2=5.820272
GW	1	39	0	-L	H	0	L	H	0.001
GW	2	1	0	-0.05	H/2	0	0.05	H/2	0.001
GW	3	1	0	-0.05	2	0	0.05	2	0.001
GE	1
LD	5	0	0	0	58000000
LD	7	0	0	0	4.5	0.002
GN	2	0	0	0	17	0.015
EK
EX	0	3	1	0	1	0	0
TL	1	20	2	1	50	TL1	0	0	0	0
TL	2	1	3	1	75	TL2	0	0	0	0
FR,0,1,0,0,3.6
PQ -1
PT -1
