CM 
CM forw: 72, 0 ; back: 72, 180
CE
SY freq=3.55
SY H=13
SY R=12.7406
SY B=22-H
SY sp=0.4
GW	1	10	0	0	B	0	0	B+H	0.001
GW	2	10	0	0	B	0	R	B	0.001
GW	3	1	0	R	B	sp	R	B	0.001
GW	4	10	sp	R	B	sp	0.1	B	0.001
GW	5	10	0	0	B	0	-R	B	0.001
GW	6	1	0	-R	B	sp	-R	B	0.001
GW	7	10	sp	-R	B	sp	-0.1	B	0.001
GW	8	10	0	0	B+H	0	5	B+H	0.001
GW	9	10	0	0	B+H	0	-5	B+H	0.001
GW	10	8	0	0	0	0	0	B	0.005
GE	1
LD	5	0	0	0	58000000
LD	7	0	0	0	4.5	0.002
LD	4	10	1	0	10
LD	4	10	8	0	0	3000
GN	2	0	0	0	17	0.015
EK
EX	0	1	1	0	1	0	0
FR,0,1,0,0,3.55
PQ -1
PT -1
