CM 
CM forw: 24, 0 ; back: 24, 180
CE
SY freq=3.575
SY H=24
SY L=20.053
SY wrad=0.0015/2	'diameter=1.5 mm
SY irad=2*wrad	'diameter=3 mm
SY theta=60
SY ct=0.5
GW	1	1	0	-ct/2	H	0	ct/2	H	wrad
GW	2	30	0	ct/2	H	0	L*sin(theta)	H-L*cos(theta)	wrad
GW	3	30	0	-ct/2	H	0	-L*sin(theta)	H-L*cos(theta)	wrad
GE	1
LD	5	0	0	0	58000000
LD	7	0	0	0	4.5	irad
GN	2	0	0	0	17	0.015
EK
EX	0	1	1	0	1	0	0
FR,0,1,0,0,3.575
PQ -1
PT -1
