CM 
CM forw: 72, 282 ; back: 72, 102
CE
SY freq=3.55
SY H=12
SY R=6
SY B=22-H
SY sp=0.3
GW	1	10	0	0	B	0	0	B+H	0.001
GW	2	5	0	0	B	0	R	B	0.001
GW	3	1	0	R	B	sp	R	B	0.001
GW	4	10	sp	-R	B	sp	R	B	0.001
GW	5	1	sp	-R	B	2*sp	-R	B	0.001
GW	6	10	2*sp	-R	B	2*sp	0	B	0.001
GW	7	7	0	0	B+H	0	5	B+H	0.001
GW	8	7	0	0	B+H	0	-5	B+H	0.001
GW	10	8	0	0	0	0	0	B	0.005
GE	1
LD	5	0	0	0	58000000
LD	7	0	0	0	4.5	0.002
LD	4	10	1	0	10
LD	4	10	8	0	0	3000
GN	2	0	0	0	17	0.015
EK
EX	0	1	1	0	1	0	0
FR,0,1,0,0,3.55
PQ -1
PT -1
