CM 
CM forw: 60, 0 ; back: 60, 180
CE
SY freq=7.2
SY H=20
SY L=10.07022
SY TL1=22
SY TL2=11
GW	1	39	0	-L	H	0	L	H	0.001
GW	2	1	0	-0.05	H/2	0	0.05	H/2	0.001
GW	3	1	0	-0.05	2	0	0.05	2	0.001
GE	1
LD	5	0	0	0	58000000
LD	7	0	0	0	4.5	0.002
GN	2	0	0	0	17	0.015
EK
EX	0	3	1	0	1	0	0
TL	1	20	2	1	50	TL1	0	0	0	0
TL	2	1	3	1	75	TL2	0	0	0	0
FR,0,1,0,0,7.2
PQ -1
PT -1
