CM 
CM forw: 71, 0 ; back: 71, 180
CE
SY freq=7.3
SY H=30
SY L=9.797256
SY L2=10.37
SY s=0.855208
GW	1	11	0	-L	H	0	L	H	0.001
GW	2	11	s	-L	H	s	L	H	0.001
GW	3	3	0	-L	H	0	-L2	H	0.001
GW	4	3	0	L	H	0	L2	H	0.001
GE	1
LD	5	0	0	0	24900000
GN	2	0	0	0	17	0.015
EK
EX	0	1	6	0	1	0	0
FR,0,1,0,0,7.3
PQ -1
PT -1
