CM 
CM forw: 70, 0 ; back: 70, 180
CE
SY freq=7.1
SY H=30
SY S=0.2
SY L=9.99742
GW	1	1	0	-s/2	H	0	s/2	H	0.02
GW	2	15	0	-s/2	H	0	-L	H	0.02
GW	3	15	0	s/2	H	0	L	H	0.02
GE	1
LD	5	0	0	0	24900000
GN	2	0	0	0	17	0.015
EK
EX	0	1	1	0	1	0	0
FR,0,1,0,0,7.1
PQ -1
PT -1
