CM 
CM forw: 70, 176 ; back: 70, 356
CE
SY freq=7.0
SY H=30
SY L=8.95
SY L2=10.47333
SY s=1
GW	1	3	s/2	0	H	-s/2	0	H	0.001
GW	2	15	s/2	0	H	s/2	L	H	0.001
GW	3	15	s/2	0	H	s/2	-L	H	0.001
GW	4	15	-s/2	0	H	-s/2	L	H	0.001
GW	5	15	-s/2	0	H	-s/2	-L	H	0.001
GW	6	3	s/2	L	H	s/2	L2	H	0.001
GW	7	3	-s/2	-L	H	-s/2	-L2	H	0.001
GE	1
LD	5	0	0	0	24900000
GN	2	0	0	0	17	0.015
EK
EX	0	1	2	0	1	0	0
FR,0,1,0,0,7
PQ -1
PT -1
