CM 
CM forw: 62, 0 ; back: 62, 180
CE
SY freq=14.15
SY H=10
SY L1=10.0239
SY L2=10.5676
SY S=3.047756
GW	1	11	0	L1/2	H	0	-L1/2	H	0.001
GW	2	11	-S	L2/2	H	-S	-L2/2	H	0.001
GE	-1
LD	5	0	0	0	30800000
GN	2	0	0	0	17	0.015
EK
EX	0	1	6	0	1	0	0
FR,0,1,0,0,14.15
PQ -1
PT -1
RP,0,36,73,1003,-88,0,5,5
