CM 
CM forw: 72, 0 ; back: 72, 180
CE
SY freq=7.1
SY B=4
SY H=9.970543
SY R=10.4
GW	1	10	0	0	B	0	0	B+H	0.0008
GW	2	10	0	0	B	R	0	B	0.0008
GW	3	10	0	0	B	-R	0	B	0.0008
GW	4	10	0	0	B	0	R	B	0.0008
GW	5	10	0	0	B	0	-R	B	0.0008
GE	1
LD	5	0	0	0	58000000
LD	7	0	0	0	4.5	0.002
GN	2	0	0	0	17	0.015
EK
EX	0	1	1	0	1	0	0
FR,0,1,0,0,7.1
PQ -1
PT -1
RP,0,36,73,1003,-88,0,5,5
