CM 
CM forw:-68, 0 ; back:-68, 180
CE
SY freq=7.05
SY H=3
SY L=12.05	'10.67
SY R=3.806643
SY s=0.1
GW	1	30	0	0	H	0	0	H+L	1e-3
GW	2	7	0	0	H	0	R	H	1e-3
GW	3	14	0	-R	H-s	0	R	H-s	1e-3
GW	6	1	0	R	H	0	R	H-s	1e-3
GE	1
LD	5	0	0	0	24900000
GN	2	0	0	0	13	0.005
EK
EX	0	1	1	0	1	0	0
FR,0,1,0,0,7.05
PQ -1
PT -1
