CM 
CM forw: 66, 0 ; back: 66, 180
CE
SY F=7.08
SY H=21.5
SY A=7.5
SY B=15
SY W=0.8e-3
SY C=1.5e-3
GW	1	21	0	-B/2	H	0	B/2	H	W
GW	2	11	0	B/2	H	0	B/2	H+A	W
GW	3	21	0	-B/2	H+A	0	B/2	H+A	W
GW	4	11	0	-B/2	H	0	-B/2	H+A	W
GE	1
LD	5	0	0	0	58000000
LD	7	0	0	0	4.5	C
GN	2	0	0	0	17	0.015
EK
EX	0	1	11	0	1	0	0
FR,0,1,0,0,7.08
PQ -1
PT -1
