CM 
CM forw: 49, 0 ; back: 49, 180
CE
SY freq=7.1
SY theta1=55
SY theta2=30
SY H=17
SY S=10.467
GW	1	13	0	0	H	0	-S*cos(theta1)	H-S*sin(theta1)	0.001
GW	2	13	0	0	H	0	S*cos(theta2)	H-S*sin(theta2)	0.001
GE	1
LD	5	0	0	0	58000000
LD	7	0	0	0	4.5	0.002
GN	2	0	0	0	17	0.015
EK
EX	0	1	1	0	1	0	0
EX	0	2	1	0	-1	0	0
FR,0,1,0,0,7.1
PQ -1
PT -1
