CM 
CM forw: 72, 0 ; back: 72, 180
CE
SY freq=7.08
SY C=21.05/freq
SY cf=0.9
SY H=3.904702*C*cf
SY w=0.0008
SY ins=0.0019
SY rf=0.962737
SY S=5.515723
GW	1	10	0	0	0	0	0	H	w
GW	2	10	-S	0	0	-S	0	rf*H	w
GE	1
LD	5	0	0	0	58000000
LD	7	0	0	0	4.5	ins
GN	3	0	0	0	43	0.053
EK
EX	0	1	1	0	1	0	0
FR,0,1,0,0,7.08
PQ -1
PT -1
RP,3,36,73,1003,-88,0,5,5
