CM 
CM forw: 73, 0 ; back: 73, 180
CE
SY freq=7.08
SY C=21.05/freq
SY cf=0.939464
SY H=3.904702*C*cf
SY w=0.0008
SY ins=0.0019
SY capr=298.7448
SY S=6.027268
SY cap=240.4354
GW	1	15	0	0	0	0	0	H	w
GW	2	15	-S	0	0	-S	0	H	w
GE	1
LD	5	0	0	0	58000000
LD	7	0	0	0	4.5	ins
LD	0	1	2	0	0	0	cap*1e-12
LD	0	2	1	0	0	0	capr*1e-12
GN	3	0	0	0	43	0.053
EK
EX	0	1	1	0	1	0	0
FR,0,1,0,0,7.08
PQ -1
PT -1
RP,3,36,73,1003,-87,0,5,5
