CM 
CM forw: 68, 0 ; back: 68, 180
CE
SY freq=7.08
SY C=21.05/freq
SY cf=0.96264
SY H=3.904702*C*cf
SY w=0.0008
SY ins=0.0019
GW	1	10	0	0	0	0	0	H	w
GE	1
LD	5	0	0	0	58000000
LD	7	0	0	0	4.5	ins
GN	3	0	0	0	17	0.015
EK
EX	0	1	1	0	1	0	0
FR,0,1,0,0,7.08
PQ -1
PT -1
