CM 
CM forw: 75, 0 ; back: 75, 180
CE
SY freq=14.15
SY H=20
SY D20=5.043847
SY D15=3.3598
SY D10=2.582605
GW	1	5	2.9	1.15	H	2.9	-1.15	H	0.0125
GW	2	3	2.9	1.15	H	2.9	2.5	H	0.010
GW	3	3	2.9	2.5	H	2.9	3.95	H	0.008
GW	4	3	2.9	3.95	H	2.9	D20	H	0.006
GW	5	3	2.9	-1.15	H	2.9	-2.5	H	0.010
GW	6	3	2.9	-2.5	H	2.9	-3.95	H	0.008
GW	7	3	2.9	-3.95	H	2.9	-D20	H	0.006
GW	8	5	3.4	1.15	H	3.4	-1.15	H	0.010
GW	9	3	3.4	1.15	H	3.4	2.2	H	0.008
GW	10	3	3.4	2.2	H	3.4	D15	H	0.006
GW	11	3	3.4	-1.15	H	3.4	-2.2	H	0.008
GW	12	3	3.4	-2.2	H	3.4	-D15	H	0.006
GW	13	5	2.4	1.15	H	2.4	-1.15	H	0.008
GW	14	3	2.4	1.15	H	2.4	D10	H	0.006
GW	15	3	2.4	-1.15	H	2.4	-D10	H	0.006
GW	16	5	0	1.15	H	0	-1.15	H	0.0125
GW	17	3	0	1.15	H	0	2.5	H	0.010
GW	18	3	0	2.5	H	0	3.95	H	0.008
GW	19	3	0	3.95	H	0	5.48	H	0.006
GW	20	3	0	-1.15	H	0	-2.5	H	0.010
GW	21	3	0	-2.5	H	0	-3.95	H	0.008
GW	22	3	0	-3.95	H	0	-5.48	H	0.006
GW	23	5	0.7	1.15	H	0.7	-1.15	H	0.008
GW	24	3	0.7	1.15	H	0.7	2.68	H	0.006
GW	25	3	0.7	-1.15	H	0.7	-2.68	H	0.006
GW	26	5	1.4	1.15	H	1.4	-1.15	H	0.010
GW	27	3	1.4	1.15	H	1.4	2.2	H	0.008
GW	28	3	1.4	2.2	H	1.4	3.6	H	0.006
GW	29	3	1.4	-1.15	H	1.4	-2.2	H	0.008
GW	30	3	1.4	-2.2	H	1.4	-3.6	H	0.006
GW	31	5	4	1.15	H	4	-1.15	H	0.008
GW	32	3	4	1.15	H	4	2.44	H	0.006
GW	33	3	4	-1.15	H	4	-2.44	H	0.006
GW	34	10	0	0	H-0.05	4	0	H-0.05	0.04
GE	-1
LD	5	0	0	0	30800000
GN	2	0	0	0	17	0.015
EK
EX	0	1	3	0	1	0	0
TL	1	3	8	3	100	0.5	0	0	0	0
TL	1	3	13	3	100	0.5	0	0	0	0
FR,0,1,0,0,14.15
PQ -1
PT -1
