CM 
CM forw: 66, 0 ; back: 66, 180
CE
SY freq=7.1
SY H=10.4
GW	1	20	0	0	0.01	0	0	0.01+H	0.0008
GW	2	20	0	0	0.01	1.28551237	6.46270714	0.01	0.0008
GW	3	20	0	0	0.01	2.52162323	6.08773701	0.01	0.0008
GW	4	20	0	0	0.01	3.66082952	5.47881856	0.01	0.0008
GW	5	20	0	0	0.01	4.65935219	4.65935219	0.01	0.0008
GW	6	20	0	0	0.01	5.47881856	3.66082952	0.01	0.0008
GW	7	20	0	0	0.01	6.08773701	2.52162323	0.01	0.0008
GW	8	20	0	0	0.01	6.46270714	1.28551237	0.01	0.0008
GW	9	20	0	0	0.01	6.58931906	0	0.01	0.0008
GW	10	20	0	0	0.01	6.46270714	-1.2855123	0.01	0.0008
GW	11	20	0	0	0.01	6.08773701	-2.5216233	0.01	0.0008
GW	12	20	0	0	0.01	5.47881856	-3.6608295	0.01	0.0008
GW	13	20	0	0	0.01	4.65935219	-4.6593522	0.01	0.0008
GW	14	20	0	0	0.01	3.66082952	-5.4788186	0.01	0.0008
GW	15	20	0	0	0.01	2.52162323	-6.087737	0.01	0.0008
GW	16	20	0	0	0.01	1.28551237	-6.4627072	0.01	0.0008
GW	17	20	0	0	0.01	0	-6.589319	0.01	0.0008
GW	18	20	0	0	0.01	-1.2855123	-6.4627072	0.01	0.0008
GW	19	20	0	0	0.01	-2.5216233	-6.087737	0.01	0.0008
GW	20	20	0	0	0.01	-3.6608295	-5.4788186	0.01	0.0008
GW	21	20	0	0	0.01	-4.6593522	-4.6593522	0.01	0.0008
GW	22	20	0	0	0.01	-5.4788186	-3.6608295	0.01	0.0008
GW	23	20	0	0	0.01	-6.087737	-2.5216233	0.01	0.0008
GW	24	20	0	0	0.01	-6.4627072	-1.2855123	0.01	0.0008
GW	25	20	0	0	0.01	-6.589319	0	0.01	0.0008
GW	26	20	0	0	0.01	-6.4627072	1.28551237	0.01	0.0008
GW	27	20	0	0	0.01	-6.087737	2.52162323	0.01	0.0008
GW	28	20	0	0	0.01	-5.4788186	3.66082952	0.01	0.0008
GW	29	20	0	0	0.01	-4.6593522	4.65935219	0.01	0.0008
GW	30	20	0	0	0.01	-3.6608295	5.47881856	0.01	0.0008
GW	31	20	0	0	0.01	-2.5216233	6.08773701	0.01	0.0008
GW	32	20	0	0	0.01	-1.2855123	6.46270714	0.01	0.0008
GW	33	20	0	0	0.01	0	6.58931906	0.01	0.0008
GE	-1
LD	5	0	0	0	58000000
LD	7	0	0	0	4.5	0.0018
GN	2	0	0	0	17	0.015
EK
EX	0	1	1	0	1	0	0
FR,0,1,0,0,7.1
PQ -1
PT -1
