CM 
CM forw: 77, 0 ; back: 77, 180
CE
SY freq=21.1
SY wrad=0.5*1.8*1e-3
SY H=15
SY g=0.452681	'gamma bar
SY gs=0.1	'gamma spacing
SY L=3.755053
SY C=30.13081
GW	1	9	0	-L/2	H-L/2	0	L/2	H-L/2	wrad
GW	7	9	0	-L/2	H+L/2	0	L/2	H+L/2	wrad
GW	8	9	0	-L/2	H-L/2	0	-L/2	H+L/2	wrad
GW	9	9	0	L/2	H-L/2	0	L/2	H+L/2	wrad
GE	1
LD	5	0	0	0	58000000
GN	2	0	0	0	17	0.015
EK
EX	0	1	5	0	1	0	0
FR,0,1,0,0,21.1
PQ -1
PT -1
