CM 
CM forw: 80, 0 ; back: 80, 180
CE
SY freq=28.1
SY wrad=0.5*1.8*1e-3
SY H=15
SY g=0.5	'gamma bar
SY gs=0.1	'gamma spacing
SY L=2.8
GW	1	9	0	-L/2	H-L/2	0	L/2	H-L/2	wrad
GW	2	9	0	-L/2	H+L/2	0	L/2	H+L/2	wrad
GW	3	9	0	-L/2	H-L/2	0	-L/2	H+L/2	wrad
GW	4	9	0	L/2	H-L/2	0	L/2	H+L/2	wrad
GE	1
LD	5	0	0	0	58000000
GN	2	0	0	0	17	0.015
EK
EX	0	1	5	0	1	0	0
FR,0,1,0,0,28.1
PQ -1
PT -1
