CM 
CM forw: 80, 84 ; back: 80, 264
CE
SY freq=21.05
SY B=1
SY H=3.373484
SY R=H
GW	1	10	0	0	B	0	0	B+H	0.0008
GW	2	10	0	0	B	R	0	B	0.0008
GW	3	10	0	0	B	-R	0	B	0.0008
GE	1
LD	5	0	0	0	58000000
LD	7	0	0	0	4.5	0.0019
GN	2	0	0	0	81	5.0
EK
EX	0	1	1	0	1	0	0
FR,0,1,0,0,21.05
PQ -1
PT -1
