CM T2FD Resistively Loaded Dipole, by K6STI
CM Converted with 4nec2 on 22-apr-02
CM 
CM 
CM 
CM 
CM 
CM forw: 63, 179 ; back: 63, 359
CE
SY freq=7.1
SY L=9.902255
SY S=0.408463
SY H=22
SY Z=391.5579
GW	1	19	0	-L	H	0	L	H	0.001
GW	2	19	S	-L	H	S	L	H	0.001
GW	3	2	0	-L	H	S	-L	H	0.001
GW	4	2	0	L	H	S	L	H	0.001
GE	1
LD	1	2	10	10	Z	0
GN	2	0	0	0	17	0.015
EK
EX	0	1	10	0	1	0	0
FR,0,1,0,0,7.1
PQ -1
PT -1
