CM 
CM forw: 80, 0 ; back: 80, 180
CE
SY freq=21.1
SY H=20
SY R=7.177921
SY E=6.792151
SY D=6.412334
SY RE=2.986939
SY ED=2.165672
SY gb=0.481102	'gamma bar
SY s=0.1	'shorting bar
GW	1	1	0	0	H	0	0	H+S	0.010
GW	2	6	0	-E/2	H	0	0	H	0.010
GW	3	3	0	0	H	0	gb	H	0.010
GW	4	5	0	gb	H	0	E/2	H	0.010
GW	5	3	0	0	H+s	0	gb	H+s	0.010
GW	6	1	0	gb	H	0	gb	H+s	0.010
GW	7	12	-RE	-R/2	H	-RE	R/2	H	0.010
GW	8	10	ED	-D/2	H	ED	D/2	H	0.010
GE	1
LD	5	0	0	0	24900000
GN	2	0	0	0	17	0.015
EK
EX	0	1	1	0	1	0	0
FR,0,1,0,0,21.1
PQ -1
PT -1
