CM 
CM forw: 63, 0 ; back: 63, 180
CE
SY freq=7.1
SY lambda=300/freq
SY L=10.35131
SY H=20
SY TL1=0.5*(300/freq)	'42.25, 20.88069
SY TL2=11	'10.56, 11.25
SY TLloss=0.5
GW	1	39	0	-L	H	0	L	H	0.001
GW	2	1	0	-0.05	H/2	0	0.05	H/2	0.001
GW	3	1	0	-0.05	2	0	0.05	2	0.001
GW	21	1	0	-0.05	H/2-0.1	0	0.05	H/2-0.1	0.001
GW	22	1	0	-0.05	H/2	0	-0.05	H/2-0.1	0.001
GW	23	1	0	0.05	H/2	0	0.05	H/2-0.1	0.001
GE	1
LD	5	0	0	0	58000000
LD	4	22	1	0	TLloss
LD	4	23	1	0	TLloss
GN	2	0	0	0	17	0.015
EK
EX	0	3	1	0	1	0	0
TL	1	20	2	1	50	TL1	0	0	0	0
TL	21	1	3	1	75	TL2	0	0	0	0
FR,0,1,0,0,7.1
PQ -1
PT -1
