CM 
CM forw: 80, 0 ; back: 80, 180
CE
SY freq=21.1
SY H=20
SY R=7.205425
SY E=6.73615
SY D=6.379223
SY RE=2.807211
SY ED=2.572238
GW	1	11	0	-E/2	H	0	E/2	H	0.010
GW	2	12	-RE	-R/2	H	-RE	R/2	H	0.010
GW	3	10	ED	-D/2	H	ED	D/2	H	0.010
GE	1
LD	5	0	0	0	24900000
GN	2	0	0	0	17	0.015
EK
EX	0	1	6	0	1	0	0
FR,0,1,0,0,21.1
PQ -1
PT -1
RP,0,19,73,1003,-90,0,5,5
