CM 
CM forw: 80, 179 ; back: 80, 359
CE
SY freq=21.1
SY H=20
SY R=7.807598
SY E=7
SY D=7.449276
SY RE=3.141304
SY ED=3.695841
GW	1	11	0	-E/2	H	0	E/2	H	0.010
GW	2	12	-RE	-R/2	H	-RE	R/2	H	0.010
GW	3	10	ED	-D/2	H	ED	D/2	H	0.010
GE	1
LD	5	0	0	0	24900000
GN	2	0	0	0	17	0.015
EK
EX	0	1	6	0	1	0	0
FR,0,1,0,0,21.1
PQ -1
PT -1
RP,0,19,72,1003,-90,4,5,5
