CM 
CM forw: 75, 83 ; back: 75, 263
CE
SY freq=21.05
SY H=5
SY S=1.5
SY L=2.188357
SY D=3.33397
SY theta=atn(L/S)
GW	1	7	S	0	H	S-(D*cos(theta))	0	H+(D*sin(theta))	0.0008
GW	2	7	S	0	H	S-(D*cos(theta))	0	H-(D*sin(theta))	0.0008
GE	1
LD	5	0	0	0	58000000
LD	7	0	0	0	4.5	0.0019
GN	2	0	0	0	17	0.015
EK
EX	0	1	1	0	1	0	0
FR,0,1,0,0,21.05
PQ -1
PT -1
