CM 
CM forw: 73, 0 ; back: 73, 180
CE
SY freq=7.1
SY H=20.52652
SY L=1
SY R=2
GW	1	15	0	0	L	0	0	H	0.001
GW	2	4	0	0	L	R	0	L	0.001
GE	1
LD	5	0	0	0	58000000
LD	7	0	0	0	4.5	0.002
GN	2	0	0	0	17	0.015
EK
EX	0	1	1	0	1	0	0
FR,0,1,0,0,7.1
PQ -1
PT -1
