CM 
CM forw: 61, 195 ; back: 61, 15
CE
SY freq=3.55
SY H=22
SY L=1
SY R=5.834754
SY T=15
GW	1	3	0	-0.1732051	0	0	-0.1732051	4	4.e-3
GW	2	3	-0.15	0.086603	0	-0.15	0.086603	4	4.e-3
GW	3	3	0.15	0.086603	0	0.15	0.086603	4	4.e-3
GW	4	1	0	-0.1732051	4	-0.15	0.086603	4	4.e-3
GW	5	1	-0.15	0.086603	4	0.15	0.086603	4	4.e-3
GW	6	1	0.15	0.086603	4	0	-0.1732051	4	4.e-3
GW	7	3	0	-0.1732051	4	0	-0.1732051	8	4.e-3
GW	8	3	-0.15	0.086603	4	-0.15	0.086603	8	4.e-3
GW	9	3	0.15	0.086603	4	0.15	0.086603	8	4.e-3
GW	10	1	0	-0.1732051	8	-0.15	0.086603	8	4.e-3
GW	11	1	-0.15	0.086603	8	0.15	0.086603	8	4.e-3
GW	12	1	0.15	0.086603	8	0	-0.1732051	8	4.e-3
GW	13	3	0	-0.1732051	8	0	-0.1732051	12	4.e-3
GW	14	3	-0.15	0.086603	8	-0.15	0.086603	12	4.e-3
GW	15	3	0.15	0.086603	8	0.15	0.086603	12	4.e-3
GW	16	1	0	-0.1732051	12	-0.15	0.086603	12	4.e-3
GW	17	1	-0.15	0.086603	12	0.15	0.086603	12	4.e-3
GW	18	1	0.15	0.086603	12	0	-0.1732051	12	4.e-3
GW	19	3	0	-0.1732051	12	0	-0.1732051	16	4.e-3
GW	20	3	-0.15	0.086603	12	-0.15	0.086603	16	4.e-3
GW	21	3	0.15	0.086603	12	0.15	0.086603	16	4.e-3
GW	22	1	0	-0.1732051	16	-0.15	0.086603	16	4.e-3
GW	23	1	-0.15	0.086603	16	0.15	0.086603	16	4.e-3
GW	24	1	0.15	0.086603	16	0	-0.1732051	16	4.e-3
GW	25	3	0	-0.1732051	16	0	-0.1732051	20	4.e-3
GW	26	3	-0.15	0.086603	16	-0.15	0.086603	20	4.e-3
GW	27	3	0.15	0.086603	16	0.15	0.086603	20	4.e-3
GW	28	1	0	-0.1732051	20	-0.15	0.086603	20	4.e-3
GW	29	1	-0.15	0.086603	20	0.15	0.086603	20	4.e-3
GW	30	1	0.15	0.086603	20	0	-0.1732051	20	4.e-3
GW	31	3	0	-0.1732051	20	0	-0.1732051	24	4.e-3
GW	32	3	-0.15	0.086603	20	-0.15	0.086603	24	4.e-3
GW	33	3	0.15	0.086603	20	0.15	0.086603	24	4.e-3
GW	34	1	0	-0.1732051	24	-0.15	0.086603	24	4.e-3
GW	35	1	-0.15	0.086603	24	0.15	0.086603	24	4.e-3
GW	36	1	0.15	0.086603	24	0	-0.1732051	24	4.e-3
GW	37	5	0	-4	0	0	-0.1732051	4	4.e-3
GW	38	5	-3.4641016	2	0	-0.15	0.086603	4	4.e-3
GW	39	5	3.464102	2	0	0.15	0.086603	4	4.e-3
GW	40	7	0	-4	0	0	-0.1732051	8	4.e-3
GW	41	7	-3.4641016	2	0	-0.15	0.086603	8	4.e-3
GW	42	7	3.464102	2	0	0.15	0.086603	8	4.e-3
GW	43	9	0	-4	0	0	-0.1732051	12	4.e-3
GW	44	9	-3.4641016	2	0	-0.15	0.086603	12	4.e-3
GW	45	9	3.464102	2	0	0.15	0.086603	12	4.e-3
GW	46	13	0	-4	0	0	-0.1732051	16	4.e-3
GW	47	13	-3.4641016	2	0	-0.15	0.086603	16	4.e-3
GW	48	13	3.464102	2	0	0.15	0.086603	16	4.e-3
GW	49	15	0	-5	0	0	-0.1732051	20	4.e-3
GW	50	15	-4.330127	2.5	0	-0.15	0.086603	20	4.e-3
GW	51	15	4.330127	2.5	0	0.15	0.086603	20	4.e-3
GW	52	17	0	-5	0	0	-0.1732051	24	4.e-3
GW	53	17	-4.330127	2.5	0	-0.15	0.086603	24	4.e-3
GW	54	17	4.330127	2.5	0	0.15	0.086603	24	4.e-3
GW	55	1	0	-0.1732051	24	0	-0.1732051	25	4.e-3
GW	56	1	-0.15	0.086603	24	-0.15	0.086603	25	4.e-3
GW	57	1	0.15	0.086603	24	0.15	0.086603	25	4.e-3
GW	58	1	0	-0.1732051	25	-0.15	0.086603	25	4.e-3
GW	59	1	-0.15	0.086603	25	0.15	0.086603	25	4.e-3
GW	60	1	0.15	0.086603	25	0	-0.1732051	25	4.e-3
GW	100	20	4*cos(30)	-4*sin(30)	L	1*cos(30)	-1*sin(30)	H	0.001
GW	102	20	1*cos(30)	-1*sin(30)	H	1*cos(30)+T*cos(-120)	-1*sin(30)+T*sin(-120)	12	0.001
GW	103	5	4*cos(30)	-4*sin(30)	L	4*cos(30)+R*cos(90)	-4*sin(30)+R*sin(90)	L	0.001
GE	1
LD	5	0	0	0	58000000
GN	2	0	0	0	17	0.015
EK
EX	0	100	1	0	1	0	0
FR,0,1,0,0,3.55
PQ -1
PT -1
