CM 
CM forw: 71, 0 ; back: 71, 180
CE
SY Tloss=10
SY Tseg=25
SY Freq=7.1
SY H=12
SY B=3
SY R=7.759616
SY X=2
SY Y=0
GW	1	Tseg	0	0	0	0	0	25	0.1
GW	2	10	X	0	B	X	0	B+H	0.001
GW	3	10	X	0	B	X	-R	B	0.001
GW	4	10	X	0	B	X	R	B	0.001
GE	1
LD	5	0	0	0	58000000
LD	2	1	1	25	Tloss/Tseg
GN	2	0	0	0	17	0.015
EK
EX	0	2	1	0	1	0	0
FR,0,1,0,0,7.1
PQ -1
PT -1
