CM 
CM forw: 81, 0 ; back: 81, 180
CE
SY freq=21.05
SY B=1
SY S=4.137121
SY theta=50
SY H=S*cos(30)
SY R=S*cos(90-theta)
GW	1	10	0	-R	B	0	0	B+H	0.0008
GW	2	10	0	R	B	0	0	B+H	0.0008
GW	3	10	0	-R	B	0	R	B	0.0008
GE	1
LD	5	0	0	0	58000000
LD	7	0	0	0	4.5	0.0019
GN	2	0	0	0	81	5.0
EK
EX	0	1	3	0	1	0	0
FR,0,1,0,0,21.05
PQ -1
PT -1
RP,0,36,73,1003,-89,0,5,5
