CM 
CM forw: 69, 183 ; back: 69, 3
CE
SY freq=21.05
SY B=1
SY S=4.133324
SY theta=40.66635
SY H=S*cos(30)
SY R=S*cos(90-theta)
GW	1	10	0	-R	B	0	0	B+H	0.0008
GW	2	10	0	R	B	0	0	B+H	0.0008
GW	3	10	0	-R	B	0	R	B	0.0008
GE	1
LD	5	0	0	0	58000000
LD	7	0	0	0	4.5	0.0019
GN	2	0	0	0	17	0.015
EK
EX	0	1	3	0	1	0	0
FR,0,1,0,0,21.05
PQ -1
PT -1
RP,0,36,72,1003,-86,3,5,5
