CM 
CE
SY freq=7.1
SY H=10.454
SY R=10.878
SY B=2
GW	1	10	0	0	B	0	0	B+H	0.001
GW	2	10	0	0	B	R*cos(0)	R*sin(0)	B	0.001
GW	3	10	0	0	B	R*cos(90)	R*sin(90)	B	0.001
GW	4	10	0	0	B	R*cos(180)	R*sin(180)	B	0.001
GW	5	10	0	0	B	R*cos(270)	R*sin(270)	B	0.001
GE	1
LD	5	0	0	0	58000000
GN	2	0	0	0	17	0.015
EK
EX	0	1	1	0	1	0	0
FR	0	0	0	0	freq	0
EN
