CM 
CE
GW	2	15	0	-1.902783	17.902783	0	0	19.805566	1.e-3
GW	3	15	0	0	19.805566	0	1.9027829	17.902783	1.e-3
GW	4	15	0	1.9027829	17.902783	0	0	16	1.e-3
GW	5	1	0	0	16	0	-0.075	15.925	1.e-3
GW	6	3	0	0	16	0	-0.27	16.27	1.e-3
GW	7	13	0	-0.27	16.27	0	-1.902783	17.902783	1.e-3
GW	8	3	0	-0.075	15.925	0	-0.345	16.195	1.e-3
GW	9	1	0	-0.345	16.195	0	-0.27	16.27	1.e-3
GE	-1
LD	5	0	0	0	58000000
LD	7	0	0	0	4.5	0.002
LD	4	8	1	1	0	-182
GN	2	0	0	0	17	0.015
EK
EX	0	5	1	0	1	0	0
FR	0	0	0	0	28.15	0
EN
