CM 
CE
SY freq=28.1
SY H=26
SY lambda=300/freq
SY corr=1.005904
SY S=corr*lambda/4
SY theta=43.73784
SY SMA=S*cos(theta)
SY SMiA=S*sin(theta)
GW	1	1	0	0.05	H	0	-0.05	H	0.001
GW	2	2	0	0.05	H	0	SMiA	H+SMA	0.001
GW	3	2	0	SMiA	H+SMA	0	0	H+2*SMA	0.001
GW	4	2	0	-0.05	H	0	-SMiA	H+SMA	0.001
GW	5	2	0	-SMiA	H+SMA	0	0	H+2*SMA	0.001
GE	1
LD	5	0	0	0	58000000
LD	7	0	0	0	4.5	0.002
GN	2	0	0	0	17	0.015
EK
EX	0	1	1	0	1	0	0
FR	0	0	0	0	freq	0
EN
