CE
GW	1	1	-0.05	0	18	0.05	0	18	1.e-3
GW	2	13	-0.05	0	18	-1.6893347	0	21.175796	1.e-3
GW	3	13	-1.6893347	0	21.175796	0	0	24.351593	1.e-3
GW	4	13	0.05	0	18	1.689335	0	21.175796	1.e-3
GW	5	13	1.689335	0	21.175796	0	0	24.351593	1.e-3
GW	6	1	-0.05	0	10.890995	0.05	0	10.890995	1.e-3
GW	7	13	-0.05	0	10.890995	-1.6893347	0	14.066792	1.e-3
GW	8	13	-1.6893347	0	14.066792	0	0	17.242588	1.e-3
GW	9	13	0.05	0	10.890995	1.689335	0	14.066792	1.e-3
GW	10	13	1.689335	0	14.066792	0	0	17.242588	1.e-3
GE	0
EK
LD	5	0	0	0	5.8e7	0
LD	2	0	0	0	0	1.29488e-7
EX	0	1	1	0	1	0
EX	0	6	1	0	1	0
GN	2	0	0	0	17	0.015
FR	0	1	0	0	21.1	0
