CM 
CE
SY freq=21.1
SY lambda=300/freq
SY s=0.95*300/21.1
SY H=20
SY Zo=330
SY TL_len=10.47
GW	1	49	0	s/2	H	0	-s/2	H	0.01
GW	10	1	0	0.01	H-TL_len	0	-0.01	H-TL_len	0.001
GE	1
LD	5	0	0	0	37700000
GN	2	0	0	0	17	0.015
EK
EX	0	10	1	0	1	0	0
TL	10	1	1	25	Zo	TL_len	0	0	0	0
FR	0	0	0	0	freq	0
EN
