CE
GW	1	9	6.5	0	1.5	5.5	0	1.5	1.e-3
GW	2	9	5.5	0	1.5	5.5	0	2.5	1.e-3
GW	3	9	5.5	0	2.5	6.5	0	2.5	1.e-3
GW	4	9	6.5	0	2.5	6.5	0	1.5	1.e-3
GW	5	9	2.5	0	1.5	1.5	0	1.5	1.e-3
GW	6	9	1.5	0	1.5	1.5	0	2.5	1.e-3
GW	7	9	1.5	0	2.5	2.5	0	2.5	1.e-3
GW	8	9	2.5	0	2.5	2.5	0	1.5	1.e-3
GW	9	9	-1.5	0	1.5	-2.5	0	1.5	1.e-3
GW	10	9	-2.5	0	1.5	-2.5	0	2.5	1.e-3
GW	11	9	-2.5	0	2.5	-1.5	0	2.5	1.e-3
GW	12	9	-1.5	0	2.5	-1.5	0	1.5	1.e-3
GW	13	9	-5.5	0	1.5	-6.5	0	1.5	1.e-3
GW	14	9	-6.5	0	1.5	-6.5	0	2.5	1.e-3
GW	15	9	-6.5	0	2.5	-5.5	0	2.5	1.e-3
GW	16	9	-5.5	0	2.5	-5.5	0	1.5	1.e-3
GE	0
EK
EX	0	1	5	0	1	0
EX	0	5	5	0	-1	0
EX	0	9	5	0	-6.42788e-1	7.66044e-1
EX	0	13	5	0	6.42788e-1	-7.66044e-1
GN	2	0	0	0	13	0.005
FR	0	1	0	0	7	0
