CM 
CE
SY f1=14.15
SY f2=21.15
SY l1=300/f1
SY l2=300/f2
SY c1=0.16716
SY c2=0.173229
SY w1=c1*l1
SY w2=c2*l2
SY r1=2.1
SY r2=2.0199
SY t1=w1*r1
SY t2=w2*r2
SY h=16
SY dh=0.35
GW	1	1	0	-0.05	H+dh/2	0	0.05	H+dh/2	0.001
GW	2	2	0	-0.05	H+dh/2	0	-0.3	H+dh	0.001
GW	3	2	0	-0.05	H+dh/2	0	-0.3	H	0.001
GW	4	2	0	0.05	H+dh/2	0	0.3	H+dh	0.001
GW	5	2	0	0.05	H+dh/2	0	0.3	H	0.001
GW	11	5	0	0.3	H	0	w1/2	H	0.001
GW	12	5	0	-0.3	H	0	-w1/2	H	0.001
GW	13	10	0	w1/2	H	0	w1/2	H+t1	0.001
GW	14	10	0	-w1/2	H	0	-w1/2	H+t1	0.001
GW	15	7	0	-w1/2	H+t1	0	w1/2	H+t1	0.001
GW	21	5	0	0.3	H+dh	0	w2/2	H+dh	0.001
GW	22	5	0	-0.3	H+dh	0	-w2/2	H+dh	0.001
GW	23	10	0	w2/2	H+dh	0	w2/2	H+t2+dh	0.001
GW	24	10	0	-w2/2	H+dh	0	-w2/2	H+t2+dh	0.001
GW	25	7	0	-w2/2	H+t2+dh	0	w2/2	H+t2+dh	0.001
GE	1
LD	5	0	0	0	58000000
LD	7	0	0	0	4.5	0.002
GN	2	0	0	0	17	0.015
EK
EX	0	1	1	0	1	0	0
FR	0	0	0	0	f2	0
EN
