CM 
CE
SY f1=14.15, f2=18.1, f3=21.15
SY l1=300/f1, l2=300/f2, l3=300/f3
SY c1=1.006794, c2=1.007, c3=1.007
SY s1=c1*l1/4, s2=c2*l2/4, s3=c3*l3/4
SY h1=16
SY h2=h1+(s1-s2)/2
SY h3=h1+(s1-s3)/2
GW	100	1	0	0.05	(h1+h3)/2	0	-0.05	(h1+h3)/2	0.001
GW	1	1	0	0.05	(h1+h3)/2	0	s1/2	h1	0.001
GW	2	1	0	-0.05	(h1+h3)/2	0	-s1/2	h1	0.001
GW	3	1	0	s1/2	h1	0	s1/2	h1+s1	0.001
GW	4	1	0	-s1/2	h1	0	-s1/2	h1+s1	0.001
GW	5	1	0	-s1/2	h1+s1	0	s1/2	h1+s1	0.001
GW	11	1	0	0.05	(h1+h3)/2	0	s2/2	h2	0.001
GW	12	1	0	-0.05	(h1+h3)/2	0	-s2/2	h2	0.001
GW	13	1	0	s2/2	h2	0	s2/2	h2+s2	0.001
GW	14	1	0	-s2/2	h2	0	-s2/2	h2+s2	0.001
GW	15	1	0	-s2/2	h2+s2	0	s2/2	h2+s2	0.001
GW	21	1	0	0.05	(h1+h3)/2	0	s3/2	h3	0.001
GW	22	1	0	-0.05	(h1+h3)/2	0	-s3/2	h3	0.001
GW	23	1	0	s3/2	h3	0	s3/2	h3+s3	0.001
GW	24	1	0	-s3/2	h3	0	-s3/2	h3+s3	0.001
GW	25	1	0	-s3/2	h3+s3	0	s3/2	h3+s3	0.001
GE	1
LD	5	0	0	0	58000000
LD	7	0	0	0	4.5	0.002
GN	2	0	0	0	17	0.015
EK
EX	0	100	1	0	1	0	0
FR	0	0	0	0	f3	0
EN
