CM 
CE
SY f1=14.15, f2=18.1, f3=21.15
SY l1=300/f1, l2=300/f2, l3=300/f3
SY c1=0.9972, c2=0.9866, c3=0.9856
SY s1=c1*l1/4, s2=c2*l2/4, s3=c3*l3/4
SY h1=16
SY h2=h1+(s1-s2)/2
SY h3=h1+(s1-s3)/2
GW	1	9	0	-s1/2	h1	0	s1/2	h1	0.001
GW	2	9	0	s1/2	h1	0	s1/2	h1+s1	0.001
GW	3	9	0	-s1/2	h1	0	-s1/2	h1+s1	0.001
GW	4	9	0	-s1/2	h1+s1	0	s1/2	h1+s1	0.001
GW	11	9	0	-s2/2	h2	0	s2/2	h2	0.001
GW	12	9	0	s2/2	h2	0	s2/2	h2+s2	0.001
GW	13	9	0	-s2/2	h2	0	-s2/2	h2+s2	0.001
GW	14	9	0	-s2/2	h2+s2	0	s2/2	h2+s2	0.001
GW	21	9	0	-s3/2	h3	0	s3/2	h3	0.001
GW	22	9	0	s3/2	h3	0	s3/2	h3+s3	0.001
GW	23	9	0	-s3/2	h3	0	-s3/2	h3+s3	0.001
GW	24	9	0	-s3/2	h3+s3	0	s3/2	h3+s3	0.001
GE	1
LD	5	0	0	0	58000000
LD	7	0	0	0	4.5	0.002
GN	2	0	0	0	17	0.015
EK
EX	0	21	5	0	1	0	0
FR	0	0	0	0	f3	0
EN
