CM 
CE
SY sp=7
GW	1	1	sp/2	-0.1	23	sp/2	0.1	23	0.001
GW	2	1	sp/2	-0.1	23	sp/2	-10.4	14	0.001
GW	3	1	sp/2	4.9	9.9	sp/2	-10.4	14	0.001
GW	4	1	sp/2	4.9	9.9	sp/2	0.1	23	0.001
GW	5	1	-sp/2	-0.1	23	-sp/2	0.1	23	0.001
GW	6	1	-sp/2	-0.1	23	-sp/2	-10.4	14	0.001
GW	7	1	-sp/2	4.9	9.9	-sp/2	-10.4	14	0.001
GW	8	1	-sp/2	4.9	9.9	-sp/2	0.1	23	0.001
GE	-1
LD	5	0	0	0	58000000
LD	7	0	0	0	4.5	0.0015
GN	2	0	0	0	13	0.005
EK
EX	0	1	1	0	1	0	0
FR	0	0	0	0	7.1	0
EN
