CE
GW	1	5	0.125	0.07216879	0	0.125	0.07216879	4	7.e-3
GW	2	5	-1.8e-7	-0.1443377	0	-1.8e-7	-0.1443377	4	7.e-3
GW	3	5	-0.1250002	0.07216869	0	-0.1250002	0.07216869	4	7.e-3
GW	4	1	0.125	0.07216879	4	-1.8e-7	-0.1443377	4	7.e-3
GW	5	1	-1.8e-7	-0.1443377	4	-0.1250002	0.07216869	4	7.e-3
GW	6	1	-0.1250002	0.07216869	4	0.125	0.07216879	4	7.e-3
GW	7	5	0.125	0.07216879	4	0.125	0.07216879	8	7.e-3
GW	8	5	-1.8e-7	-0.1443377	4	-1.8e-7	-0.1443377	8	7.e-3
GW	9	5	-0.1250002	0.07216869	4	-0.1250002	0.07216869	8	7.e-3
GW	10	1	0.125	0.07216879	8	-1.8e-7	-0.1443377	8	7.e-3
GW	11	1	-1.8e-7	-0.1443377	8	-0.1250002	0.07216869	8	7.e-3
GW	12	1	-0.1250002	0.07216869	8	0.125	0.07216879	8	7.e-3
GW	13	5	0.125	0.07216879	8	0.125	0.07216879	12	7.e-3
GW	14	5	-1.8e-7	-0.1443377	8	-1.8e-7	-0.1443377	12	7.e-3
GW	15	5	-0.1250002	0.07216869	8	-0.1250002	0.07216869	12	7.e-3
GW	16	1	0.125	0.07216879	12	-1.8e-7	-0.1443377	12	7.e-3
GW	17	1	-1.8e-7	-0.1443377	12	-0.1250002	0.07216869	12	7.e-3
GW	18	1	-0.1250002	0.07216869	12	0.125	0.07216879	12	7.e-3
GW	19	5	0.125	0.07216879	12	0.125	0.07216879	16	7.e-3
GW	20	5	-1.8e-7	-0.1443377	12	-1.8e-7	-0.1443377	16	7.e-3
GW	21	5	-0.1250002	0.07216869	12	-0.1250002	0.07216869	16	7.e-3
GW	22	1	0.125	0.07216879	16	-1.8e-7	-0.1443377	16	7.e-3
GW	23	1	-1.8e-7	-0.1443377	16	-0.1250002	0.07216869	16	7.e-3
GW	24	1	-0.1250002	0.07216869	16	0.125	0.07216879	16	7.e-3
GW	25	5	0.125	0.07216879	16	0.125	0.07216879	20	7.e-3
GW	26	5	-1.8e-7	-0.1443377	16	-1.8e-7	-0.1443377	20	7.e-3
GW	27	5	-0.1250002	0.07216869	16	-0.1250002	0.07216869	20	7.e-3
GW	28	1	0.125	0.07216879	20	-1.8e-7	-0.1443377	20	7.e-3
GW	29	1	-1.8e-7	-0.1443377	20	-0.1250002	0.07216869	20	7.e-3
GW	30	1	-0.1250002	0.07216869	20	0.125	0.07216879	20	7.e-3
GW	31	5	0.125	0.07216879	20	0.125	0.07216879	24	7.e-3
GW	32	5	-1.8e-7	-0.1443377	20	-1.8e-7	-0.1443377	24	7.e-3
GW	33	5	-0.1250002	0.07216869	20	-0.1250002	0.07216869	24	7.e-3
GW	34	1	0.125	0.07216879	24	-1.8e-7	-0.1443377	24	7.e-3
GW	35	1	-1.8e-7	-0.1443377	24	-0.1250002	0.07216869	24	7.e-3
GW	36	1	-0.1250002	0.07216869	24	0.125	0.07216879	24	7.e-3
GW	37	7	3.4641016	2	0	0.125	0.07216879	4	2.e-3
GW	38	7	0	-4	0	-1.8e-7	-0.1443377	4	2.e-3
GW	39	7	-3.4641018	2.00000031	0	-0.1250002	0.07216869	4	2.e-3
GW	40	11	3.4641016	2	0	0.125	0.07216879	8	2.e-3
GW	41	11	0	-4	0	-1.8e-7	-0.1443377	8	2.e-3
GW	42	11	-3.4641018	2.00000031	0	-0.1250002	0.07216869	8	2.e-3
GW	43	15	3.4641016	2	0	0.125	0.07216879	12	2.e-3
GW	44	15	0	-4	0	-1.8e-7	-0.1443377	12	2.e-3
GW	45	15	-3.4641018	2.00000031	0	-0.1250002	0.07216869	12	2.e-3
GW	46	21	3.4641016	2	0	0.125	0.07216879	16	2.e-3
GW	47	21	0	-4	0	-1.8e-7	-0.1443377	16	2.e-3
GW	48	21	-3.4641018	2.00000031	0	-0.1250002	0.07216869	16	2.e-3
GW	49	25	4.330127	2.5	0	0.125	0.07216879	20	2.e-3
GW	50	25	0	-5	0	-1.8e-7	-0.1443377	20	2.e-3
GW	51	25	-4.330127	2.49999999	0	-0.1250002	0.07216869	20	2.e-3
GW	52	29	4.330127	2.5	0	0.125	0.07216879	24	2.e-3
GW	53	29	0	-5	0	-1.8e-7	-0.1443377	24	2.e-3
GW	54	29	-4.330127	2.49999999	0	-0.1250002	0.07216869	24	2.e-3
GW	55	1	0.125	0.07216879	24	0.125	0.07216879	25	7.e-3
GW	56	1	-1.8e-7	-0.1443377	24	-1.8e-7	-0.1443377	25	7.e-3
GW	57	1	-0.1250002	0.07216869	24	-0.1250002	0.07216869	25	7.e-3
GW	58	1	0.125	0.07216879	25	-1.8e-7	-0.1443377	25	7.e-3
GW	59	1	-1.8e-7	-0.1443377	25	-0.1250002	0.07216869	25	7.e-3
GW	60	1	-0.1250002	0.07216869	25	0.125	0.07216879	25	7.e-3
GW	61	1	0.125	0.07216879	25	0	0	25	7.e-3
GW	62	1	-1.8e-7	-0.1443377	25	0	0	25	7.e-3
GW	63	1	-0.1250002	0.07216869	25	0	0	25	7.e-3
GW	64	1	0	0	25	0	0	25.5	0.025
GW	65	1	0	0	25.5	0	0	26	0.025
GW	72	13	3	5.288	19.712	3	-5.288	19.712	8.e-4
GW	73	13	3	5.288	30.288	3	-5.288	30.288	8.e-4
GW	74	13	3	5.288	30.288	3	5.288	19.712	8.e-4
GW	75	13	3	-5.288	30.288	3	-5.288	19.712	8.e-4
GW	76	13	-3	5.488	19.512	-3	-5.488	19.512	8.e-4
GW	77	13	-3	5.488	30.488	-3	-5.488	30.488	8.e-4
GW	78	13	-3	5.488	30.488	-3	5.488	19.512	8.e-4
GW	79	13	-3	-5.488	30.488	-3	-5.488	19.512	8.e-4
GE	1
EK
LD	5	72	0	0	5.8e7	0
LD	5	73	0	0	5.8e7	0
LD	5	74	0	0	5.8e7	0
LD	5	75	0	0	5.8e7	0
LD	5	76	0	0	5.8e7	0
LD	5	77	0	0	5.8e7	0
LD	5	78	0	0	5.8e7	0
LD	5	79	0	0	5.8e7	0
EX	0	72	7	0	1	0
GN	2	0	0	0	13	0.005
FR	0	1	0	0	7.15	0
