CM 
CE
SY L=300/7
SY W=L*0.05
SY H=L*0.1
SY D=W*3
SY R1=900
SY R2=890
GW	1	9	0	0	2	0	0	H+2	0.001
GW	2	9	W	0	2	W	0	H+2	0.001
GW	3	9	0	0	2	W	0	2	0.001
GW	4	9	0	0	H+2	W	0	H+2	0.001
GW	5	9	0+D	0	2	0+D	0	H+2	0.001
GW	6	9	W+D	0	2	W+D	0	H+2	0.001
GW	7	9	0+D	0	2	W+D	0	2	0.001
GW	8	9	0+D	0	H+2	W+D	0	H+2	0.001
GE	1
LD	4	1	5	0	R1
LD	4	5	5	0	R2
GN	2	0	0	0	13	0.005
EK
EX	0	2	5	0	1	0	0
EX	0	6	5	0	-1	0	0
FR	0	0	0	0	7	0
EN
