CM 
CE
SY f1=14.15, f2=21.15, f3=28.15
SY c1=3.63, c2=2.55, c3=1.7
SY h=20
GW	1	10	0	-0.05	h-c1	0	-c1	h	0.001
GW	2	10	0	-c1	h	0	0	h+c1	0.001
GW	3	10	0	0	h+c1	0	c1	h	0.001
GW	4	10	0	c1	h	0	0.05	h-c1	0.001
GW	5	10	0	-0.05	h-c2	0	-c2	h	0.001
GW	6	10	0	-c2	h	0	0	h+c2	0.001
GW	7	10	0	0	h+c2	0	c2	h	0.001
GW	8	10	0	c2	h	0	0.05	h-c2	0.001
GW	9	10	0	-0.05	h-c3	0	-c3	h	0.001
GW	10	10	0	-c3	h	0	0	h+c3	0.001
GW	11	10	0	0	h+c3	0	c3	h	0.001
GW	12	10	0	c3	h	0	0.05	h-c3	0.001
GW	101	1	0	-0.05	h-c1	0	0.05	h-c1	0.001
GW	102	1	0	-0.05	h-c2	0	0.05	h-c2	0.001
GW	103	1	0	-0.05	h-c3	0	0.05	h-c3	0.001
GE	1
LD	5	0	0	0	58000000
GN	2	0	0	0	17	0.015
EK
EX	0	102	1	0	1	0	0
TL	101	1	102	1	-450	c1-c2	0	0	0	0
TL	102	1	103	1	-450	c2-c3	0	0	0	0
FR	0	0	0	0	f3	0
EN
