CM 
CE
SY H=12
SY D=10.03178
SY R=10.61664
SY Dr=0.01
SY Rr=0.01
SY S=5.009168
SY theta=30
GW	1	25	S/2	0	H	S/2	D*cos(theta)	H-D*sin(theta)	Dr
GW	2	25	S/2	0	H	S/2	-D*cos(theta)	H-D*sin(theta)	Dr
GW	3	25	-S/2	0	H	-S/2	R*cos(theta)	H-R*sin(theta)	Rr
GW	4	25	-S/2	0	H	-S/2	-R*cos(theta)	H-R*sin(theta)	Rr
GE	1
LD	5	0	0	0	58000000
GN	2	0	0	0	17	0.015
EK
EX	0	1	1	0	1	0	0
FR	0	0	0	0	7.1	0
EN
