CM 
CE
SY freq=7.1
SY lambda=300/freq
SY H=20
SY Zo=555.5902
SY TL1=24.55975
GW	1	19	0	-3	H	0	3	H	0.015
GW	5	10	0	-3	H	0	-6	H	0.01
GW	6	10	0	3	H	0	6	H	0.01
GW	7	5	0	6	H	1	6	H	0.003
GW	8	5	0	6	H	-1	6	H	0.003
GW	9	5	0	-6	H	1	-6	H	0.003
GW	10	5	0	-6	H	-1	-6	H	0.003
GW	20	1	0	-0.05	3	0	0.05	3	0.001
GE	1
LD	5	0	0	0	37700000
GN	2	0	0	0	17	0.015
EK
EX	0	20	1	0	1	0	0
TL	1	10	20	1	Zo	TL1	0	0	0	0
FR	0	0	0	0	freq	0
EN
