CM 
CE
SY H=5
SY L=10.5
GW	1	25	0	0	H	7.15017482	7.15017482	H	0.01
GW	2	25	0	0	H	10.1118742	0	H	0.01
GW	3	25	0	0	H	7.15017482	-7.1501748	H	0.01
GW	4	25	0	0	H	0	-10.111874	H	0.01
GW	5	25	0	0	H	-7.1501748	-7.1501748	H	0.01
GW	6	25	0	0	H	-10.111874	0	H	0.01
GW	7	25	0	0	H	-7.1501748	7.15017482	H	0.01
GW	8	25	0	0	H	0	10.1118742	H	0.01
GW	9	25	0	0	H	0	0	H+L	0.02
GE	-1
LD	5	0	0	0	37700000
GN	2	0	0	0	17	0.015
EK
EX	0	9	1	0	1	0	0
FR	0	0	0	0	7.1	0
EN
