CM 
CE
SY freq=7.1
SY f=(7.2/7.1)*(7.15/7.1)
SY L1=10.74*f
SY L2=9.1*f
SY S=0.35*f
SY H=12
GW	1	1	0	L1	H	0	-L1	H	0.001
GW	2	1	S	L2	H	S	-L2	H	0.001
GW	3	1	-S	L2	H	-S	-L2	H	0.001
GE	1
LD	5	0	0	0	58000000
GN	2	0	0	0	17	0.015
EK
EX	0	1	1	0	1	0	0
FR	0	0	0	0	freq	0
EN
