CM 
CE
SY H=11
SY R=0.0254/2
GW	1	5	0	0	H	0	0	3+H	R	'Vertical Radiator
GW	2	5	0	0	3+H	0	0	4.3+H	R*3/4
GW	3	5	0	0	4.3+H	0	0	5.6+H	R*1/2
GW	4	5	0	0	5.6+H	0	0	6.9+H	R*1/4
GW	5	5	0	0	6.9+H	0	0	8.2+H	R*1/8
GW	10	5	0	0	H	0	3	H-0.2	0.002
GW	11	5	0	3	H-0.2	0	3	H-5	0.002
GW	12	5	0	3	H-5	2.6	3	H-5	0.002
GW	20	5	0	0	H	-3	0	H	0.002
GW	21	10	-3	0	H	-3	0	H-7.4	0.002
GE	-1
LD	5	0	0	0	37700000
GN	2	0	0	0	17	0.015
EK
EX	0	1	1	0	1	0	0
FR	0	0	0	0	7.1	0
EN
