CM 
CE
SY freq=7.1
SY lambda=300/freq
SY H=20
SY L=0.95*lambda/2
SY theta1=40
SY theta2=45
SY Zo=483
SY TL1=31.45
GW	1	1	0	-0.05	H	0	0.05	H	0.001
GW	2	30	0	-0.05	H	0	-0.05-(L*cos(theta1))	H-(L*sin(theta1))	0.001
GW	3	30	0	0.05	H	0	0.05+(L*cos(theta2))	H-(L*sin(theta2))	0.001
GW	10	1	0	-0.05	3	0	0.05	3	0.001
GE	1
LD	5	0	0	0	37700000
GN	2	0	0	0	17	0.015
EK
EX	0	10	1	0	1	0	0
TL	1	1	10	1	Zo	TL1	0	0	0	0
FR	0	0	0	0	freq	0
EN
