CM 
CE
SY H=3
SY Z=H-3
GW	1	1	0.55557023	0	3.83146961+Z	0.83146961	0	3.55557023+Z	1.e-3
GW	2	1	0.83146961	0	3.55557023+Z	0.98078528	0	3.19509032+Z	1.e-3
GW	3	1	0.98078528	0	3.19509032+Z	0.98078528	0	2.80490968+Z	1.e-3
GW	4	1	0.98078528	0	2.80490968+Z	0.83146961	0	2.44442977+Z	1.e-3
GW	5	1	0.83146961	0	2.44442977+Z	0.55557023	0	2.16853039+Z	1.e-3
GW	6	1	0.55557023	0	2.16853039+Z	0.19509032	0	2.01921472+Z	1.e-3
GW	7	1	0.19509032	0	2.01921472+Z	-0.1950903	0	2.01921472+Z	1.e-3
GW	8	1	-0.1950903	0	2.01921472+Z	-0.5555702	0	2.16853039+Z	1.e-3
GW	9	1	-0.5555702	0	2.16853039+Z	-0.8314696	0	2.44442977+Z	1.e-3
GW	10	1	-0.8314696	0	2.44442977+Z	-0.9807853	0	2.80490968+Z	1.e-3
GW	11	1	-0.9807853	0	2.80490968+Z	-0.9807853	0	3.19509032+Z	1.e-3
GW	12	1	-0.9807853	0	3.19509032+Z	-0.8314696	0	3.55557023+Z	1.e-3
GW	13	1	-0.8314696	0	3.55557023+Z	-0.5555702	0	3.83146961+Z	1.e-3
GW	14	1	-0.5555702	0	3.83146961+Z	-0.1950903	0	3.98078528+Z	1.e-3
GW	15	1	-0.1950903	0	3.98078528+Z	0.19509032	0	3.98078528+Z	1.e-3
GW	16	1	0.19509032	0	3.98078528+Z	0.55557023	0	3.83146961+Z	1.e-3
GE	1
LD	5	0	0	0	58000000
GN	2	0	0	0	5	0.001
EK
EX	0	7	1	0	1	0	0
FR	0	0	0	0	1.825	0
EN
