CE
GW	1	13	0	0	1	0	-5	1	1.e-3
GW	2	7	0	0	1	0	2.5	1	1.e-3
GW	3	25	0	0	1	10	-0.5	1	1.e-3
GW	4	27	0	0	1	10	-5	1	1.e-3
GW	5	25	0	0	1	10	2.5	1	1.e-3
GW	6	7	0	0	1	0.5	2.5	1	1.e-3
GW	7	13	0	0	1	0.5	-5	1	1.e-3
GW	8	13	0	0	1	1	-5	1	1.e-3
GW	9	13	0	0	1	1.5	-5	1	1.e-3
GW	10	7	0	0	1	1	2.5	1	1.e-3
GW	11	7	0	0	1	1.5	2.5	1	1.e-3
GW	12	9	0	0	1	2	2.5	1	1.e-3
GW	13	13	0	0	1	2	-5	1	1.e-3
GW	14	13	0	0	1	2.5	-5	1	1.e-3
GW	15	15	0	0	1	3	-5	1	1.e-3
GW	16	15	0	0	1	4	-5	1	1.e-3
GW	17	17	0	0	1	5	-5	1	1.e-3
GW	18	19	0	0	1	6	-5	1	1.e-3
GW	19	21	0	0	1	7	-5	1	1.e-3
GW	20	23	0	0	1	8.5	-5	1	1.e-3
GW	21	9	0	0	1	2.5	2.5	1	1.e-3
GW	22	9	0	0	1	3	2.5	1	1.e-3
GW	23	11	0	0	1	4	2.5	1	1.e-3
GW	24	13	0	0	1	5	2.5	1	1.e-3
GW	25	17	0	0	1	6.5	2.5	1	1.e-3
GW	26	25	0	0	1	10	-3.5	1	1.e-3
GW	27	25	0	0	1	10	1.5	1	1.e-3
GW	28	25	0	0	1	10	-2.5	1	1.e-3
GW	29	25	0	0	1	10	-1.5	1	1.e-3
GW	30	25	0	0	1	10	0.5	1	1.e-3
GW	31	25	0	0	1	0	0	11	1.e-3
GE	0
EK
LD	5	0	0	0	5.8e7	0
EX	0	31	1	0	1	0
GN	2	0	0	0	17	0.015
FR	0	1	0	0	7.1	0
