CM 
CE
SY L=10
SY R=10
SY H=3
GW	1	20	0	0	H+L	0	0	H	0.001
GW	2	20	0	0	H+L	0	R*cos(45)	H+L-R*sin(45)	0.001
GW	3	20	0	0	H+L	0	-R*cos(45)	H+L-R*sin(45)	0.001
GW	4	20	0	0	H+L	R*cos(45)	0	H+L-R*sin(45)	0.001
GW	5	20	0	0	H+L	-R*cos(45)	0	H+L-R*sin(45)	0.001
GE	1
LD	5	0	0	0	58000000
GN	2	0	0	0	17	0.015
EK
EX	0	1	1	0	1	0	0
FR	0	0	0	0	7.1	0
EN
