CM 
CE
SY H=5
SY L=11.75
GW	1	13	0	0	H	3.69120577	3.69120577	H	0.01
GW	2	13	0	0	H	5.22015325	0	H	0.01
GW	3	13	0	0	H	3.69120577	-3.6912058	H	0.01
GW	4	13	0	0	H	0	-5.2201533	H	0.01
GW	5	13	0	0	H	-3.6912058	-3.6912058	H	0.01
GW	6	13	0	0	H	-5.2201533	0	H	0.01
GW	7	13	0	0	H	-3.6912058	3.69120577	H	0.01
GW	8	13	0	0	H	0	5.22015325	H	0.01
GW	9	25	0	0	H	0	0	H+L	0.02
GE	-1
LD	5	0	0	0	37700000
GN	2	0	0	0	17	0.015
EK
EX	0	9	1	0	1	0	0
FR	0	0	0	0	7.1	0
EN
