CM 
CE
SY freq=7.1
SY lambda=300/freq
SY H=20
SY D=5
SY L=lambda/2
SY Zo=300
SY Zo1=300
SY TL1=D+lambda/2
SY TL2=19.5
GW	1	49	D/2	-L/2	H	D/2	L/2	H	0.001
GW	2	49	-D/2	-L/2	H	-D/2	L/2	H	0.001
GW	10	1	D/2	-0.05	15	D/2	0.05	15	0.001
GE	1
GN	2	0	0	0	17	0.015
EK
EX	0	10	1	0	1	0	0
TL	1	25	2	25	Zo	TL1	0	0	0	0
TL	10	1	1	25	Zo1	TL2	0	0	0	0
FR	0	0	0	0	freq	0
EN
