CM 
CE
SY H=12
SY theta=35
SY total=45
SY D=total/4
SY res=(total/(2+2*cos(theta)))-D
SY hbase=(D+res)*cos(theta)
SY Rad=0.0005
GW	1	25	0	D*cos(theta)	H-D*sin(theta)	0	0	H	Rad
GW	2	5	0	D*cos(theta)	H-D*sin(theta)	0	hbase	H-((D+res)*sin(theta))	Rad
GW	3	50	0	hbase	H-((D+res)*sin(theta))	0	-hbase	H-((D+res)*sin(theta))	Rad
GW	4	25	0	-hbase	H-((D+res)*sin(theta))	0	0	H	Rad
GE	1
LD	5	0	0	0	58000000
GN	2	0	0	0	17	0.015
EK
EX	0	1	1	0	1	0	0
FR	0	0	0	0	7.1	0
EN
