CM 
CE
SY H=4
SY C=2.4
GW	1	10	0	-7	H	0	0	7+H	0.001
GW	2	10	0	-7	H	0	0	H	0.001
GW	3	10	0	7	H	0	0	7+H	0.001
GW	4	10	0	7	H	0	0	H	0.001
GW	5	5	0	0	7+H	0	0	3.5+H	0.001
GW	6	3	0	0	H	0	0	H-0.5	0.001
GW	7	5	0	0	H-0.5	0	-C	H-0.5	0.001
GW	8	5	0	0	H-0.5	0	C	H-0.5	0.001
GW	9	5	0	0	3.5+H	0	-1	3+H	0.001
GW	10	5	0	0	3.5+H	0	1	3+H	0.001
GE	1
LD	5	0	0	0	58000000
LD	7	0	0	0	4.5	0.002
GN	2	0	0	0	17	0.015
EK
EX	0	1	1	0	1	0	0
FR	0	0	0	0	7.1	0
EN
