CE
GW	1	51	0	0	20	9	0	14	1.e-3
GW	2	51	0	0	20	-9	0	14	1.e-3
GW	3	51	0	0	20	0	9	14	1.e-3
GW	4	51	0	0	20	0	-9	14	1.e-3
GW	5	47	0	0	20	0	0	30	1.e-3
GE	0
EK
LD	5	0	0	0	5.8e7	0
EX	0	5	1	0	1	0
GN	2	0	0	0	17	0.015
FR	0	1	0	0	7.1	0
