CE
GW	1	25	0	0	2	10	0	2	0.01
GW	2	25	0	0	2	0	-10	2	0.01
GW	3	25	0	0	2	-10	0	2	0.01
GW	4	25	0	0	2	0	10	2	0.01
GW	5	25	0	0	2	0	0	12.7	0.01
GE	0
EK
LD	5	0	0	0	3.77e7	0
EX	0	5	1	0	1	0
GN	2	0	0	0	17	0.015
FR	0	1	0	0	7.1	0
