CM 
CE
GW	1	17	0	0	0.5	7	0	0.5	1.e-3
GW	2	17	0	0	0.5	-7	0	0.5	1.e-3
GW	3	11	0	0	0.5	0	-4.5	0.5	1.e-3
GW	4	11	0	0	0.5	0	4.5	0.5	1.e-3
GW	5	21	0	0	0.5	7	-4.5	0.5	1.e-3
GW	6	21	0	0	0.5	-7	4.5	0.5	1.e-3
GW	7	21	0	0	0.5	-7	-4.5	0.5	1.e-3
GW	8	21	0	0	0.5	7	4.5	0.5	1.e-3
GW	9	11	0	0	0.5	-0.5	4.5	0.5	1.e-3
GW	10	11	0	0	0.5	-1	4.5	0.5	1.e-3
GW	11	11	0	0	0.5	-1.5	4.5	0.5	1.e-3
GW	12	13	0	0	0.5	-2.25	4.5	0.5	1.e-3
GW	13	13	0	0	0.5	-3	4.5	0.5	1.e-3
GW	14	15	0	0	0.5	-4	4.5	0.5	1.e-3
GW	15	17	0	0	0.5	-5.25	4.5	0.5	1.e-3
GW	17	17	0	0	0.5	-7	0.5	0.5	1.e-3
GW	18	17	0	0	0.5	-7	1.25	0.5	1.e-3
GW	19	17	0	0	0.5	-7	2.25	0.5	1.e-3
GW	20	19	0	0	0.5	-7	3.25	0.5	1.e-3
GW	22	11	0	0	0.5	0.5	4.5	0.5	1.e-3
GW	23	11	0	0	0.5	1	4.5	0.5	1.e-3
GW	24	11	0	0	0.5	1.5	4.5	0.5	1.e-3
GW	25	13	0	0	0.5	2.25	4.5	0.5	1.e-3
GW	26	13	0	0	0.5	3	4.5	0.5	1.e-3
GW	27	15	0	0	0.5	4	4.5	0.5	1.e-3
GW	28	17	0	0	0.5	5.25	4.5	0.5	1.e-3
GW	30	17	0	0	0.5	7	0.5	0.5	1.e-3
GW	31	17	0	0	0.5	7	1.25	0.5	1.e-3
GW	32	17	0	0	0.5	7	2.25	0.5	1.e-3
GW	33	19	0	0	0.5	7	3.25	0.5	1.e-3
GW	35	17	0	0	0.5	7	-0.5	0.5	1.e-3
GW	36	17	0	0	0.5	7	-1.25	0.5	1.e-3
GW	37	17	0	0	0.5	7	-2.25	0.5	1.e-3
GW	38	19	0	0	0.5	7	-3.25	0.5	1.e-3
GW	40	17	0	0	0.5	-7	-0.5	0.5	1.e-3
GW	41	17	0	0	0.5	-7	-1.25	0.5	1.e-3
GW	42	17	0	0	0.5	-7	-2.25	0.5	1.e-3
GW	43	19	0	0	0.5	-7	-3.25	0.5	1.e-3
GW	45	11	0	0	0.5	0.5	-4.5	0.5	1.e-3
GW	46	11	0	0	0.5	1	-4.5	0.5	1.e-3
GW	47	11	0	0	0.5	1.5	-4.5	0.5	1.e-3
GW	48	13	0	0	0.5	2.25	-4.5	0.5	1.e-3
GW	49	13	0	0	0.5	3	-4.5	0.5	1.e-3
GW	50	15	0	0	0.5	4	-4.5	0.5	1.e-3
GW	51	17	0	0	0.5	5.25	-4.5	0.5	1.e-3
GW	53	11	0	0	0.5	-0.5	-4.5	0.5	1.e-3
GW	54	11	0	0	0.5	-1	-4.5	0.5	1.e-3
GW	55	11	0	0	0.5	-1.5	-4.5	0.5	1.e-3
GW	56	13	0	0	0.5	-2.25	-4.5	0.5	1.e-3
GW	57	13	0	0	0.5	-3	-4.5	0.5	1.e-3
GW	58	15	0	0	0.5	-4	-4.5	0.5	1.e-3
GW	59	17	0	0	0.5	-5.25	-4.5	0.5	1.e-3
GW	61	25	0	0	0.5	0	0	8	5.e-3
GW	62	0	0	0	8	0	1.1	8	5.e-3
GW	63	0	0	0	8	0	-1.1	8	5.e-3
GW	64	0	0	0	8	1.1	0	8	5.e-3
GW	65	0	0	0	8	-1.1	0	8	5.e-3
GE	-1
LD	5	0	0	0	58000000
GN	2	0	0	0	17	0.015
EK
EX	0	61	1	0	1	0	0
FR	0	0	0	0	7.1	0
EN
