CM 
CE
SY s=0.5
SY h=5
GW	1	5	s	s	h	s	-s	h	0.001
GW	2	5	-s	s	h	-s	-s	h	0.001
GW	3	5	s	s	h	-s	s	h	0.001
GW	4	5	s	-s	h	-s	-s	h	0.001
GE	1
LD	5	0	0	0	58000000
GN	2	0	0	0	17	0.015
EK
EX	0	1	3	0	1	0	0
EX	0	2	3	0	-1	0	0
FR	0	0	0	0	7.1	0
EN
