CM 
CE
SY V=10.4
SY R=10.5
SY H=7
SY theta=20
SY Vr=0.01
SY Rr=0.01
GW	1	25	0	0	H	0	0	V+H	Vr
GW	2	25	0	0	H	0	R*cos(theta)	-R*sin(theta)+H	Rr
GW	3	25	0	0	H	0	-R*cos(theta)	-R*sin(theta)+H	Rr
GE	1
LD	5	0	0	0	58000000
GN	2	0	0	0	17	0.015
EK
EX	0	1	1	0	1	0	0
FR	0	0	0	0	7.1	0
EN
