CM 
CE
GW	1	1	0	-0.1	23	0	0.1	23	0.001
GW	2	33	0	-0.1	23	0	-10.4	14	0.001
GW	3	39	0	4.9	9.9	0	-10.4	14	0.001
GW	4	33	0	4.9	9.9	0	0.1	23	0.001
GE	-1
LD	5	0	0	0	58000000
LD	7	0	0	0	4.5	0.0015
GN	2	0	0	0	13	0.005
EK
EX	0	1	1	0	1	0	0
FR	0	0	0	0	7.1	0
EN
