CM 
CE
SY TL=3.95
GW	1	47	0	0	1	7.39946096	17.863879	1	1.e-3
GW	2	47	0	0	1	13.6724211	13.6724211	1	1.e-3
GW	3	47	0	0	1	17.863879	7.39946096	1	1.e-3
GW	4	47	0	0	1	19.3357233	0	1	1.e-3
GW	5	47	0	0	1	17.863879	-7.399461	1	1.e-3
GW	6	47	0	0	1	13.6724211	-13.672421	1	1.e-3
GW	7	47	0	0	1	7.39946096	-17.863879	1	1.e-3
GW	8	47	0	0	1	0	-19.335723	1	1.e-3
GW	9	47	0	0	1	-7.399461	-17.863879	1	1.e-3
GW	10	47	0	0	1	-13.672421	-13.672421	1	1.e-3
GW	11	47	0	0	1	-17.863879	-7.399461	1	1.e-3
GW	12	47	0	0	1	-19.335723	0	1	1.e-3
GW	13	47	0	0	1	-17.863879	7.39946096	1	1.e-3
GW	14	47	0	0	1	-13.672421	13.6724211	1	1.e-3
GW	15	47	0	0	1	-7.399461	17.863879	1	1.e-3
GW	16	47	0	0	1	0	19.3357233	1	1.e-3
GW	17	25	0	0	1	0	0	11	1.e-3
GW	18	19	0	0	11	0	TL	11	5.e-3
GW	19	19	0	0	11	0	-TL	11	5.e-3
GW	20	19	0	0	11	TL	0	11	5.e-3
GW	21	19	0	0	11	-TL	0	11	5.e-3
GE	1
LD	5	0	0	0	58000000
GN	3	0	0	0	17	0.015
EK
EX	0	17	1	0	1	0	0
FR	0	0	0	0	3.55	0
EN
