CM 
CE
SY tl=4.75
GW	1	49	0	0	1	2.07911691	9.78147601	1	2.e-3
GW	2	49	0	0	1	4.06736643	9.13545458	1	2.e-3
GW	3	49	0	0	1	5.87785252	8.09016994	1	2.e-3
GW	4	49	0	0	1	7.43144825	6.69130606	1	2.e-3
GW	5	49	0	0	1	8.66025404	5	1	2.e-3
GW	6	49	0	0	1	9.51056516	3.09016994	1	2.e-3
GW	7	49	0	0	1	9.94521895	1.04528463	1	2.e-3
GW	8	49	0	0	1	9.94521895	-1.0452846	1	2.e-3
GW	9	49	0	0	1	9.51056516	-3.0901699	1	2.e-3
GW	10	49	0	0	1	8.66025404	-5	1	2.e-3
GW	11	49	0	0	1	7.43144825	-6.6913061	1	2.e-3
GW	12	49	0	0	1	5.87785252	-8.0901699	1	2.e-3
GW	13	49	0	0	1	4.06736643	-9.1354546	1	2.e-3
GW	14	49	0	0	1	2.07911691	-9.781476	1	2.e-3
GW	15	49	0	0	1	0	-10	1	2.e-3
GW	16	49	0	0	1	-2.0791169	-9.781476	1	2.e-3
GW	17	49	0	0	1	-4.0673664	-9.1354546	1	2.e-3
GW	18	49	0	0	1	-5.8778525	-8.0901699	1	2.e-3
GW	19	49	0	0	1	-7.4314483	-6.6913061	1	2.e-3
GW	20	49	0	0	1	-8.660254	-5	1	2.e-3
GW	21	49	0	0	1	-9.5105652	-3.0901699	1	2.e-3
GW	22	49	0	0	1	-9.945219	-1.0452846	1	2.e-3
GW	23	49	0	0	1	-9.945219	1.04528463	1	2.e-3
GW	24	49	0	0	1	-9.5105652	3.09016994	1	2.e-3
GW	25	49	0	0	1	-8.660254	5	1	2.e-3
GW	26	49	0	0	1	-7.4314483	6.69130606	1	2.e-3
GW	27	49	0	0	1	-5.8778525	8.09016994	1	2.e-3
GW	28	49	0	0	1	-4.0673664	9.13545458	1	2.e-3
GW	29	49	0	0	1	-2.0791169	9.78147601	1	2.e-3
GW	30	49	0	0	1	0	10	1	2.e-3
GW	31	20	0	0	1	0	0	11	0.01
GW	32	20	0	0	11	0	tl	11	0.01
GW	32	20	0	0	11	0	-tl	11	0.01
GW	33	20	0	0	11	tl	0	11	0.01
GW	34	20	0	0	11	-tl	0	11	0.01
GE	1
LD	5	0	0	0	58000000
GN	2	0	0	0	17	0.015
EK
EX	0	31	1	0	1	0	0
FR	0	0	0	0	3.55	0
EN
