CM 
CE
SY L=25
SY H=10
GW	1	49	0	0	H	0	0	H+L	1.e-3
GE	1
LD	5	0	0	0	58000000
GN	2	0	0	0	17	0.015
EK
EX	0	1	25	0	1	0	0
FR	0	0	0	0	3.55	0
EN
