CM 
CE
GW	1	49	0	0	1	11.8143374	16.2610403	1	1.e-3
GW	2	49	0	0	1	19.1159994	6.21116472	1	1.e-3
GW	3	49	0	0	1	19.1159994	-6.2111647	1	1.e-3
GW	4	49	0	0	1	11.8143374	-16.26104	1	1.e-3
GW	5	49	0	0	1	0	-20.099751	1	1.e-3
GW	6	49	0	0	1	-11.814337	-16.26104	1	1.e-3
GW	7	49	0	0	1	-19.115999	-6.2111647	1	1.e-3
GW	8	49	0	0	1	-19.115999	6.21116472	1	1.e-3
GW	9	49	0	0	1	-11.814337	16.2610403	1	1.e-3
GW	10	49	0	0	1	0	20.0997512	1	1.e-3
GW	11	49	0	0	1	0	0	11	1.e-3
GE	-1
LD	5	0	0	0	58000000
GN	3	0	0	0	5	0.001
EK
EX	0	11	1	0	1	0	0
FR	0	0	0	0	3.55	0
EN
