CM 
CE
SY L=20
SY H=15
GW	1	49	0	L	H	0	-L	H	1.e-3
GE	1
LD	5	0	0	0	58000000
GN	2	0	0	0	81	5.0
EK
EX	0	1	25	0	1	0	0
FR	0	0	0	0	3.55	0
EN
