CE
GW	1	25	0	0	1	10	0	1	1.e-3
GW	2	25	0	0	1	-10	0	1	1.e-3
GW	3	25	0	0	1	0	0	11	1.e-3
GW	4	19	0	0	11	8	0	11	1.e-3
GW	5	19	0	0	11	-8	0	11	1.e-3
GW	6	25	0	0	1	0	10	1	1.e-3
GW	7	25	0	0	1	0	-10	1	1.e-3
GE	0
EK
EX	0	3	1	0	1	0
GN	3	0	0	0	17	0.015
FR	0	1	0	0	3.55	0
