CM 
CE
GW	61	49	0	0	1	0	0	10	1.e-3
GW	1	49	0	0	1	2.10099611	19.9896427	1	1.e-3
GW	2	49	0	0	1	4.17897327	19.6605235	1	1.e-3
GW	3	49	0	0	1	6.21116472	19.1159994	1	1.e-3
GW	4	49	0	0	1	8.17530535	18.3620365	1	1.e-3
GW	5	49	0	0	1	10.0498756	17.4068952	1	1.e-3
GW	6	49	0	0	1	11.8143374	16.2610403	1	1.e-3
GW	7	49	0	0	1	13.4493587	14.9370261	1	1.e-3
GW	8	49	0	0	1	14.9370261	13.4493587	1	1.e-3
GW	9	49	0	0	1	16.2610403	11.8143374	1	1.e-3
GW	10	49	0	0	1	17.4068952	10.0498756	1	1.e-3
GW	11	49	0	0	1	18.3620365	8.17530535	1	1.e-3
GW	12	49	0	0	1	19.1159994	6.21116472	1	1.e-3
GW	13	49	0	0	1	19.6605235	4.17897327	1	1.e-3
GW	14	49	0	0	1	19.9896427	2.10099611	1	1.e-3
GW	15	49	0	0	1	20.0997512	0	1	1.e-3
GW	16	49	0	0	1	19.9896427	-2.1009961	1	1.e-3
GW	17	49	0	0	1	19.6605235	-4.1789733	1	1.e-3
GW	18	49	0	0	1	19.1159994	-6.2111647	1	1.e-3
GW	19	49	0	0	1	18.3620365	-8.1753054	1	1.e-3
GW	20	49	0	0	1	17.4068952	-10.049876	1	1.e-3
GW	21	49	0	0	1	16.2610403	-11.814337	1	1.e-3
GW	22	49	0	0	1	14.9370261	-13.449359	1	1.e-3
GW	23	49	0	0	1	13.4493587	-14.937026	1	1.e-3
GW	24	49	0	0	1	11.8143374	-16.26104	1	1.e-3
GW	25	49	0	0	1	10.0498756	-17.406895	1	1.e-3
GW	26	49	0	0	1	8.17530535	-18.362036	1	1.e-3
GW	27	49	0	0	1	6.21116472	-19.115999	1	1.e-3
GW	28	49	0	0	1	4.17897327	-19.660523	1	1.e-3
GW	29	49	0	0	1	2.10099611	-19.989643	1	1.e-3
GW	30	49	0	0	1	0	-20.099751	1	1.e-3
GW	31	49	0	0	1	-2.1009961	-19.989643	1	1.e-3
GW	32	49	0	0	1	-4.1789733	-19.660523	1	1.e-3
GW	33	49	0	0	1	-6.2111647	-19.115999	1	1.e-3
GW	34	49	0	0	1	-8.1753054	-18.362036	1	1.e-3
GW	35	49	0	0	1	-10.049876	-17.406895	1	1.e-3
GW	36	49	0	0	1	-11.814337	-16.26104	1	1.e-3
GW	37	49	0	0	1	-13.449359	-14.937026	1	1.e-3
GW	38	49	0	0	1	-14.937026	-13.449359	1	1.e-3
GW	39	49	0	0	1	-16.26104	-11.814337	1	1.e-3
GW	40	49	0	0	1	-17.406895	-10.049876	1	1.e-3
GW	41	49	0	0	1	-18.362036	-8.1753054	1	1.e-3
GW	42	49	0	0	1	-19.115999	-6.2111647	1	1.e-3
GW	43	49	0	0	1	-19.660523	-4.1789733	1	1.e-3
GW	44	49	0	0	1	-19.989643	-2.1009961	1	1.e-3
GW	45	49	0	0	1	-20.099751	0	1	1.e-3
GW	46	49	0	0	1	-19.989643	2.10099611	1	1.e-3
GW	47	49	0	0	1	-19.660523	4.17897327	1	1.e-3
GW	48	49	0	0	1	-19.115999	6.21116472	1	1.e-3
GW	49	49	0	0	1	-18.362036	8.17530535	1	1.e-3
GW	50	49	0	0	1	-17.406895	10.0498756	1	1.e-3
GW	51	49	0	0	1	-16.26104	11.8143374	1	1.e-3
GW	52	49	0	0	1	-14.937026	13.4493587	1	1.e-3
GW	53	49	0	0	1	-13.449359	14.9370261	1	1.e-3
GW	54	49	0	0	1	-11.814337	16.2610403	1	1.e-3
GW	55	49	0	0	1	-10.049876	17.4068952	1	1.e-3
GW	56	49	0	0	1	-8.1753054	18.3620365	1	1.e-3
GW	57	49	0	0	1	-6.2111647	19.1159994	1	1.e-3
GW	58	49	0	0	1	-4.1789733	19.6605235	1	1.e-3
GW	59	49	0	0	1	-2.1009961	19.9896427	1	1.e-3
GW	60	49	0	0	1	0	20.0997512	1	1.e-3
GE	-1
LD	5	0	0	0	58000000
GN	3	0	0	0	5	0.001
EK
EX	0	61	1	0	1	0	0
FR	0	0	0	0	3.55	0
EN
