CE
GW	1	47	0	0	1	4.15823382	19.562952	1	1.e-3
GW	2	47	0	0	1	8.13473286	18.2709092	1	1.e-3
GW	3	47	0	0	1	11.7557051	16.1803399	1	1.e-3
GW	4	47	0	0	1	14.8628965	13.3826121	1	1.e-3
GW	5	47	0	0	1	17.3205081	10	1	1.e-3
GW	6	47	0	0	1	19.0211303	6.18033989	1	1.e-3
GW	7	47	0	0	1	19.8904379	2.09056927	1	1.e-3
GW	8	47	0	0	1	19.8904379	-2.0905693	1	1.e-3
GW	9	47	0	0	1	19.0211303	-6.1803399	1	1.e-3
GW	10	47	0	0	1	17.3205081	-10	1	1.e-3
GW	11	47	0	0	1	14.8628965	-13.382612	1	1.e-3
GW	12	47	0	0	1	11.7557051	-16.18034	1	1.e-3
GW	13	47	0	0	1	8.13473286	-18.270909	1	1.e-3
GW	14	47	0	0	1	4.15823382	-19.562952	1	1.e-3
GW	15	47	0	0	1	0	-20	1	1.e-3
GW	16	47	0	0	1	-4.1582338	-19.562952	1	1.e-3
GW	17	47	0	0	1	-8.1347329	-18.270909	1	1.e-3
GW	18	47	0	0	1	-11.755705	-16.18034	1	1.e-3
GW	19	47	0	0	1	-14.862897	-13.382612	1	1.e-3
GW	20	47	0	0	1	-17.320508	-10	1	1.e-3
GW	21	47	0	0	1	-19.02113	-6.1803399	1	1.e-3
GW	22	47	0	0	1	-19.890438	-2.0905693	1	1.e-3
GW	23	47	0	0	1	-19.890438	2.09056927	1	1.e-3
GW	24	47	0	0	1	-19.02113	6.18033989	1	1.e-3
GW	25	47	0	0	1	-17.320508	10	1	1.e-3
GW	26	47	0	0	1	-14.862897	13.3826121	1	1.e-3
GW	27	47	0	0	1	-11.755705	16.1803399	1	1.e-3
GW	28	47	0	0	1	-8.1347329	18.2709092	1	1.e-3
GW	29	47	0	0	1	-4.1582338	19.562952	1	1.e-3
GW	30	47	0	0	1	0	20	1	1.e-3
GW	31	25	0	0	1	0	0	11	1.e-3
GW	32	19	0	0	11	0	7.6	11	1.e-3
GW	33	19	0	0	11	0	-7.6	11	1.e-3
GE	0
EK
LD	5	0	0	0	5.8e7	0
EX	0	31	1	0	1	0
GN	3	0	0	0	5	0.001
FR	0	1	0	0	3.55	0
