CE
GW	1	25	0	0	4	2.08948663	9.83026173	4	1.e-3
GW	2	25	0	0	4	4.08765267	9.18101822	4	1.e-3
GW	3	25	0	0	4	5.90716868	8.13052017	4	1.e-3
GW	4	25	0	0	4	7.46851306	6.72467937	4	1.e-3
GW	5	25	0	0	4	8.70344759	5.02493781	4	1.e-3
GW	6	25	0	0	4	9.5579997	3.10558236	4	1.e-3
GW	7	25	0	0	4	9.99482135	1.05049805	4	1.e-3
GW	8	25	0	0	4	9.99482135	-1.0504981	4	1.e-3
GW	9	25	0	0	4	9.5579997	-3.1055824	4	1.e-3
GW	10	25	0	0	4	8.70344759	-5.0249378	4	1.e-3
GW	11	25	0	0	4	7.46851306	-6.7246794	4	1.e-3
GW	12	25	0	0	4	5.90716868	-8.1305202	4	1.e-3
GW	13	25	0	0	4	4.08765267	-9.1810182	4	1.e-3
GW	14	25	0	0	4	2.08948663	-9.8302617	4	1.e-3
GW	15	25	0	0	4	0	-10.049876	4	1.e-3
GW	16	25	0	0	4	-2.0894866	-9.8302617	4	1.e-3
GW	17	25	0	0	4	-4.0876527	-9.1810182	4	1.e-3
GW	18	25	0	0	4	-5.9071687	-8.1305202	4	1.e-3
GW	19	25	0	0	4	-7.4685131	-6.7246794	4	1.e-3
GW	20	25	0	0	4	-8.7034476	-5.0249378	4	1.e-3
GW	21	25	0	0	4	-9.5579997	-3.1055824	4	1.e-3
GW	22	25	0	0	4	-9.9948214	-1.0504981	4	1.e-3
GW	23	25	0	0	4	-9.9948214	1.05049805	4	1.e-3
GW	24	25	0	0	4	-9.5579997	3.10558236	4	1.e-3
GW	25	25	0	0	4	-8.7034476	5.02493781	4	1.e-3
GW	26	25	0	0	4	-7.4685131	6.72467937	4	1.e-3
GW	27	25	0	0	4	-5.9071687	8.13052017	4	1.e-3
GW	28	25	0	0	4	-4.0876527	9.18101822	4	1.e-3
GW	29	25	0	0	4	-2.0894866	9.83026173	4	1.e-3
GW	30	25	0	0	4	0	10.0498756	4	1.e-3
GW	31	25	0	0	4	0	0	14	1.e-3
GW	32	19	0	0	14	0	7.8	14	1.e-3
GW	33	19	0	0	14	0	-7.8	14	1.e-3
GE	0
EK
LD	5	0	0	0	5.8e7	0
EX	0	31	1	0	1	0
GN	3	0	0	0	5	0.001
FR	0	1	0	0	3.55	0
