CM 
CE
GW	1	23	0	0.25	10	0	6	18	1.e-3
GW	3	23	0	-6	18	0	-0.25	10	1.e-3
GW	4	1	0	-0.25	10	0	0.25	10	1.e-3
GW	5	23	0	-6	18	0	-0.25	18	1.e-3
GW	6	23	0	0.25	18	0	6	18	1.e-3
GE	-1
LD	5	0	0	0	58000000
GN	2	0	0	0	17	0.015
EK
EX	0	4	1	0	1	0	0
FR	0	0	0	0	7.1	0
EN
