CM 
CE
SY w=1
SY ph=w*7*360/300
GW	1	5	0	0	5	0	0	4	1.e-3
GW	2	5	1	0	5	1	0	4	1.e-3
GE	1
GN	2	0	0	0	13	0.005
EK
EX	0	1	3	0	1	0	0
EX	0	2	3	0	cos(ph+180)	sin(ph+180)	0
FR	0	0	0	0	7	0
EN
