CM 
CE
SY ph=332
SY re1=cos(ph)
SY im1=sin(ph)
SY re2=cos(ph/2)
SY im2=sin(ph/2)
GW	1	35	2.1213	0	0	2.1213	0	1.5	1.e-3
GW	2	35	-2.034e-5	-2.1213203	0	-2.034e-5	-2.1213203	1.5	1.e-3
GW	3	35	-2.034e-5	2.12132034	0	-2.034e-5	2.12132034	1.5	1.e-3
GW	4	35	-2.1213407	0	0	-2.1213407	0	1.5	1.e-3
GE	1
LD	4	1	2	2	50	1756
LD	4	2	2	2	50	1756
LD	4	4	2	2	50	1756
LD	4	3	2	2	50	1756
GN	3	0	0	0	81	5.0
EK
EX	0	1	1	0	1	0	0
EX	0	2	1	0	re2	im2	0
EX	0	3	1	0	re2	im2	0
EX	0	4	1	0	re1	im1	0
FR	0	0	0	0	7.1	0
EN
