CM 
CE
SY L=300/7
SY W=L*0.1
SY H=L*0.1
SY R=950
GW	1	9	0	0	2	0	0	H+2	0.001
GW	2	9	W	0	2	W	0	H+2	0.001
GW	3	9	0	0	2	W	0	2	0.001
GW	4	9	0	0	H+2	W	0	H+2	0.001
GE	1
LD	4	1	5	0	R
GN	2	0	0	0	13	0.005
EK
EX	0	2	5	0	1	0	0
FR	0	0	0	0	7	0
EN
