CM 
CE
GW	1	20	4.005	12.5	0	4.005	12.5	1	1.e-3
GW	2	20	1.335	12.5	0	1.335	12.5	1	1.e-3
GW	3	20	-1.335	12.5	0	-1.335	12.5	1	1.e-3
GW	4	20	-4.005	12.5	0	-4.005	12.5	1	1.e-3
GW	5	20	4.005	-12.5	0	4.005	-12.5	1	1.e-3
GW	6	20	1.335	-12.5	0	1.335	-12.5	1	1.e-3
GW	7	20	-1.335	-12.5	0	-1.335	-12.5	1	1.e-3
GW	8	20	-4.005	-12.5	0	-4.005	-12.5	1	1.e-3
GE	1
LD	4	1	2	2	50	2640
LD	4	2	2	2	50	2640
LD	4	3	2	2	50	2640
LD	4	4	2	2	50	2640
LD	4	5	2	2	50	2640
LD	4	6	2	2	50	2640
LD	4	7	2	2	50	2640
LD	4	8	2	2	50	2640
GN	3	0	0	0	17	0.015
EK
EX	0	1	1	0	1	0	0	0
EX	0	2	1	0	-1	0	0	0
EX	0	3	1	0	-7.43145e-1	6.69131e-1	0	0
EX	0	4	1	0	8.38671e-1	-5.44639e-1	0	0
EX	0	5	1	0	1	0	0	0
EX	0	6	1	0	-1	0	0	0
EX	0	7	1	0	-7.43145e-1	6.69131e-1	0	0
EX	0	8	1	0	8.38671e-1	-5.44639e-1	0	0
FR	0	0	0	0	7	0
EN
