CM Length L in mtr. = 4
CM Radius R1 in cm. = 15
CM Radius R2 in cm. = 15
CM Start angle A1 = 0
CM Stop angle A2 = 360
CM Straight sections = 1
CM Circular sections = 3
CM Radial sections = 1
CM Rotate X, Y, Z = 0, 0, 0
CM Move X, Y, Z = 0, 0, 0
CE
GW     1    5      .15       .0       .0      .15       .0      4.0  .038828
GW     2    5    -.075  .129904       .0    -.075  .129904      4.0  .038828
GW     3    5    -.075 -.129904       .0    -.075 -.129904      4.0  .038828
GW     4    1      .15       .0       .0    -.075  .129904       .0  .038828
GW     5    1    -.075  .129904       .0    -.075 -.129904       .0  .038828
GW     6    1    -.075 -.129904       .0      .15       .0       .0  .038828
GW     7    1       .0       .0       .0      .15       .0       .0  .003784
GW     8    1       .0       .0       .0    -.075  .129904       .0  .003784
GW     9    1       .0       .0       .0    -.075 -.129904       .0  .003784
GW    10    1      .15       .0      4.0    -.075  .129904      4.0  .038828
GW    11    1    -.075  .129904      4.0    -.075 -.129904      4.0  .038828
GW    12    1    -.075 -.129904      4.0      .15       .0      4.0  .038828
GW    13    1       .0       .0      4.0      .15       .0      4.0  .003784
GW    14    1       .0       .0      4.0    -.075  .129904      4.0  .003784
GW    15    1       .0       .0      4.0    -.075 -.129904      4.0  .003784
GE 0
FR 0 0 0 0 7.1
