CM 
CE
SY D=3
SY dp=D*7*360/300
SY k=176.6773
GW	1	1	-0.0975452	0	1.50960735	0.09754516	0	1.50960735	1.e-3
GW	2	1	0.09754516	0	1.50960735	0.27778512	0	1.58426519	1.e-3
GW	3	1	0.27778512	0	1.58426519	0.41573481	0	1.72221488	1.e-3
GW	4	1	0.41573481	0	1.72221488	0.49039264	0	1.90245484	1.e-3
GW	5	1	0.49039264	0	1.90245484	0.49039265	0	2.09754516	1.e-3
GW	6	1	0.49039265	0	2.09754516	0.41573481	0	2.27778512	1.e-3
GW	7	1	0.41573481	0	2.27778512	0.27778512	0	2.41573481	1.e-3
GW	8	1	0.27778512	0	2.41573481	0.09754516	0	2.49039264	1.e-3
GW	9	1	0.09754516	0	2.49039264	-0.0975452	0	2.49039265	1.e-3
GW	10	1	-0.0975452	0	2.49039265	-0.2777851	0	2.41573481	1.e-3
GW	11	1	-0.2777851	0	2.41573481	-0.4157348	0	2.27778512	1.e-3
GW	12	1	-0.4157348	0	2.27778512	-0.4903926	0	2.09754516	1.e-3
GW	13	1	-0.4903926	0	2.09754516	-0.4903927	0	1.90245484	1.e-3
GW	14	1	-0.4903927	0	1.90245484	-0.4157348	0	1.72221488	1.e-3
GW	15	1	-0.4157348	0	1.72221488	-0.2777851	0	1.58426519	1.e-3
GW	16	1	-0.2777851	0	1.58426519	-0.09754516	0	1.50960735	1.e-3
GW	17	1	-0.0975452+D	0	1.50960735	0.09754516+D	0	1.50960735	1.e-3
GW	18	1	0.09754516+D	0	1.50960735	0.27778512+D	0	1.58426519	1.e-3
GW	19	1	0.27778512+D	0	1.58426519	0.41573481+D	0	1.72221488	1.e-3
GW	20	1	0.41573481+D	0	1.72221488	0.49039264+D	0	1.90245484	1.e-3
GW	21	1	0.49039264+D	0	1.90245484	0.49039265+D	0	2.09754516	1.e-3
GW	22	1	0.49039265+D	0	2.09754516	0.41573481+D	0	2.27778512	1.e-3
GW	23	1	0.41573481+D	0	2.27778512	0.27778512+D	0	2.41573481	1.e-3
GW	24	1	0.27778512+D	0	2.41573481	0.09754516+D	0	2.49039264	1.e-3
GW	25	1	0.09754516+D	0	2.49039264	-0.0975452+D	0	2.49039265	1.e-3
GW	26	1	-0.0975452+D	0	2.49039265	-0.2777851+D	0	2.41573481	1.e-3
GW	27	1	-0.2777851+D	0	2.41573481	-0.4157348+D	0	2.27778512	1.e-3
GW	28	1	-0.4157348+D	0	2.27778512	-0.4903926+D	0	2.09754516	1.e-3
GW	29	1	-0.4903926+D	0	2.09754516	-0.4903927+D	0	1.90245484	1.e-3
GW	30	1	-0.4903927+D	0	1.90245484	-0.4157348+D	0	1.72221488	1.e-3
GW	31	1	-0.4157348+D	0	1.72221488	-0.2777851+D	0	1.58426519	1.e-3
GW	32	1	-0.2777851+D	0	1.58426519	-0.09754516+D	0	1.50960735	1.e-3
GE	1
GN	2	0	0	0	13	0.005
EK
EX	0	1	1	0	1	0	0
EX	0	17	1	0	cos(dp+k)	sin(dp+k)	0
FR	0	0	0	0	7	0
EN
