CM 
CE
GW	1	37	0	0	5	0	0	15	4.e-3
GW	2	10	0	0	5	0	0	0	4.e-3
GW	4	37	0	0	5	-10	0	5	1.e-3
GW	5	37	0	0	5	10	0	5	1.e-3
GW	6	37	0	0	5	0	-10.5	5	1.e-3
GW	7	29	0	0	5	0	8	5	1.e-3
GW	8	37	0	0	5	9.5	4	5	1.e-3
GW	9	37	0	0	5	7	7.5	5	1.e-3
GW	10	37	0	0	5	-6.5	8	5	1.e-3
GW	11	37	0	0	5	-6.5	-8	5	1.e-3
GW	12	9	0	8	5	2.5	8	5	1.e-3
GW	13	9	0	0	5	1.5	-2	5	1.e-3
GW	14	29	1.5	-2	5	9.5	-2	5	1.e-3
GE	1
LD	5	0	0	0	58000000
GN	2	0	0	0	17	0.015
EK
EX	0	1	1	0	1	0	0
FR	0	0	0	0	7.1	0
EN
