CM 
CE
GW	1	20	0	0	12	0	-7	5	0.001
GW	2	20	0	0	12	0	7	5	0.001
GE	1
LD	5	0	0	0	58000000
LD	7	0	0	0	4.5	0.002
GN	2	0	0	0	17	0.015
EK
EX	0	1	1	0	1	0	0
FR	0	0	0	0	7.1	0
EN
