CM 
CE
SY Q=200
SY XL=475
SY R=XL/Q
GW	1	20	0	-7	5	0	0	12	0.001
GW	2	20	0	7	5	0	0	12	0.001
GW	3	20	0	-7	5	0	7	5	0.001
GE	1
LD	5	0	0	0	58000000
LD	4	3	3	0	R	XL
LD	4	3	18	0	R	XL
GN	2	0	0	0	17	0.015
EK
EX	0	1	1	0	1	0	0
FR	0	0	0	0	7.1	0
EN
