CM 
CE
SY s=4.6
SY t2=145
SY ta=180
SY tb=ta+t2
GW	1	9	0	0	0	0	0	1	0.001
GW	2	9	s	0	0	s	0	1	0.001
GW	3	9	6	0	0	6	0	1	0.001
GW	4	9	s+6	0	0	s+6	0	1	0.001
GE	1
GN	2	0	0	0	13	0.005
EK
EX	0	4	1	0	1	0	0
EX	0	3	1	0	cos(t2)	sin(t2)	0
EX	0	2	1	0	cos(ta)	sin(ta)	0
EX	0	1	1	0	cos(tb)	sin(tb)	0
FR	0	0	0	0	7	0
EN
