CM 
CE
SY ph=302
GW	1	11	-3	0	2	0	0	2	0.001
GW	2	11	-3	0	1	0	0	1	0.001
GW	3	3	-3	0	2	-3	0	1	0.001
GW	4	3	0	0	2	0	0	1	0.001
GW	5	11	0	0	2	3	0	2	0.001
GW	6	3	3	0	2	3	0	1	0.001
GW	7	11	3	0	1	0	0	1	0.001
GW	8	3	4.5	0	2	4.5	0	1	0.001
GW	9	1	7.5	0	2	7.5	0	1	0.001
GW	10	1	10.5	0	2	10.5	0	1	0.001
GW	11	11	10.5	0	1	7.5	0	1	0.001
GW	12	11	7.5	0	1	4.5	0	1	0.001
GW	13	11	4.5	0	2	7.5	0	2	0.001
GW	14	11	7.5	0	2	10.5	0	2	0.001
GE	-1
GN	2	0	0	0	13	0.005
EK
EX	0	7	6	0	1	0	0
EX	0	2	6	0	1	0	0
EX	0	12	6	0	cos(ph)	sin(ph)	0
EX	0	11	6	0	cos(ph+180)	sin(ph+180)	0
FR	0	0	0	0	7	0
EN
