CE
GW	1	5	0	0	2	1	0	2	0.01
GW	2	5	1	0	2	1	-1	2	0.01
GW	3	5	1	-1	2	0	-1	2	0.01
GW	4	5	0	-1	2	0	0	2	0.01
GW	5	5	2	0	2	3	0	2	0.01
GW	6	5	3	0	2	3	-1	2	0.01
GW	7	5	3	-1	2	2	-1	2	0.01
GW	8	5	2	-1	2	2	0	2	0.01
GW	9	5	4	0	2	5	0	2	0.01
GW	10	5	5	0	2	5	-1	2	0.01
GW	11	5	5	-1	2	4	-1	2	0.01
GW	12	5	4	-1	2	4	0	2	0.01
GW	13	5	6	0	2	7	0	2	0.01
GW	14	5	7	0	2	7	-1	2	0.01
GW	15	5	7	-1	2	6	-1	2	0.01
GW	16	5	6	-1	2	6	0	2	0.01
GE	0
EK
EX	0	1	3	0	1	0
EX	0	5	3	0	-9.67932e-1	-2.51212e-1
EX	0	9	3	0	-1	0
EX	0	13	3	0	9.67932e-1	2.51212e-1
GN	2	0	0	0	13	0.005
FR	0	1	0	0	7	0
