CM 
CE
SY S=8
SY ph=56
SY A=21.56476
SY l=1.523e-6
GW	1	9	0	5.48815	6	0	-5.48815	6	0.001
GW	2	11	0	-5.48815	6	0	0	a	0.001
GW	3	11	0	0	a	0	5.48815	6	0.001
GW	4	9	-S	5.48815	6	-S	-5.48815	6	0.001
GW	5	11	-S	-5.48815	6	-S	0	a	0.001
GW	6	11	-S	0	a	-S	5.48815	6	0.001
GE	-1
LD	0	4	5	0	0	l
GN	2	0	0	0	13	0.005
EK
EX	0	1	5	0	1	0	0
FR	0	0	0	0	7.1	0
EN
