CM 
CE
GW	1	29	0	0	0.5	30	0	0.5	0.001
GW	2	1	0	0	0	0	0	0.5	0.001
GW	3	1	30	0	0	30	0	0.5	0.001
GE	1
LD	4	2	1	0	300
LD	4	3	1	0	300
GN	2	0	0	0	13	0.005
EK
EX	0	1	15	0	1	0	0
FR	0	0	0	0	7	0
EN
