CM 
CE
SY D=5
SY freq=7
SY theta=40
SY tau=D*cos(theta)
SY ph=tau*freq*360/300
GW	1	9	0	0	0	0	0	2	0.001
GW	2	9	D	0	0	D	0	2	0.001
GW	3	9	2*D	0	0	2*D	0	2	0.001
GW	4	9	3*D	0	0	3*D	0	2	0.001
GE	1
GN	2	0	0	0	13	0.005
EK
EX	0	1	1	0	1	0	0	0
EX	0	2	1	0	cos(ph-180)	sin(ph-180)	0	0
EX	0	3	1	0	cos(180)	sin(180)	0	0
EX	0	4	1	0	cos(ph-180+180)	sin(ph-180+180)	0	0

FR	0	0	0	0	7	0
EN
