CM 
CE
SY s=7.5
SY w=1
SY ph=227.9898
GW	1	9	0	0	2	w	0	2	0.001
GW	2	9	w	0	2	w	0	3	0.001
GW	3	9	w	0	3	0	0	3	0.001
GW	4	9	0	0	3	0	0	2	0.001
GW	5	9	s	0	2	s+w	0	2	0.001
GW	6	9	s+w	0	2	s+w	0	3	0.001
GW	7	9	s+w	0	3	s	0	3	0.001
GW	8	9	s	0	3	s	0	2	0.001
GE	1
GN	2	0	0	0	13	0.005
EK
EX	0	1	5	0	1	0	0
EX	0	5	5	0	cos(ph)	sin(ph)	0
FR	0	0	0	0	7	0
EN
