CM 
CE
SY freq=14.2
SY lambda=300/freq
SY L=0.95*lambda/2
SY H=22
SY f=0.9
SY S=0.9*lambda/4
GW	1	15	1	16	0	0.8125	15.8125	6	0.05
GW	2	15	1	14	0	0.8125	14.1875	6	0.05
GW	3	15	-1	16	0	-0.8125	15.8125	6	0.05
GW	4	15	-1	14	0	-0.8125	14.1875	6	0.05
GW	5	5	0.8125	15.8125	6	0.8125	14.1875	6	0.05
GW	6	5	0.8125	14.1875	6	-0.8125	14.1875	6	0.05
GW	7	5	-0.8125	14.1875	6	-0.8125	15.8125	6	0.05
GW	8	5	-0.8125	15.8125	6	0.8125	15.8125	6	0.05
GW	9	15	0.8125	15.8125	6	0.625	15.625	12	0.05
GW	10	15	0.8125	14.1875	6	0.625	14.375	12	0.05
GW	11	15	-0.8125	15.8125	6	-0.625	15.625	12	0.05
GW	12	15	-0.8125	14.1875	6	-0.625	14.375	12	0.05
GW	13	3	0.625	15.625	12	0.625	14.375	12	0.05
GW	14	3	0.625	14.375	12	-0.625	14.375	12	0.05
GW	15	3	-0.625	14.375	12	-0.625	15.625	12	0.05
GW	16	3	-0.625	15.625	12	0.625	15.625	12	0.05
GW	17	15	0.625	15.625	12	0.4375	15.4375	18	0.05
GW	18	15	0.625	14.375	12	0.4375	14.5625	18	0.05
GW	19	15	-0.625	15.625	12	-0.4375	15.4375	18	0.05
GW	20	15	-0.625	14.375	12	-0.4375	14.5625	18	0.05
GW	21	3	0.4375	15.4375	18	0.4375	14.5625	18	0.05
GW	22	3	0.4375	14.5625	18	-0.4375	14.5625	18	0.05
GW	23	3	-0.4375	14.5625	18	-0.4375	15.4375	18	0.05
GW	24	3	-0.4375	15.4375	18	0.4375	15.4375	18	0.05
GW	25	15	0.4375	15.4375	18	0.25	15.25	24	0.05
GW	26	15	0.4375	14.5625	18	0.25	14.75	24	0.05
GW	27	15	-0.4375	15.4375	18	-0.25	15.25	24	0.05
GW	28	15	-0.4375	14.5625	18	-0.25	14.75	24	0.05
GW	29	1	0.25	15.25	24	0.25	14.75	24	0.05
GW	30	1	0.25	14.75	24	-0.25	14.75	24	0.05
GW	31	1	-0.25	14.75	24	-0.25	15.25	24	0.05
GW	32	1	-0.25	15.25	24	0.25	15.25	24	0.05
GW	33	15	1	-14	0	0.8125	-14.1875	6	0.05
GW	34	15	1	-16	0	0.8125	-15.8125	6	0.05
GW	35	15	-1	-14	0	-0.8125	-14.1875	6	0.05
GW	36	15	-1	-16	0	-0.8125	-15.8125	6	0.05
GW	37	5	0.8125	-14.1875	6	0.8125	-15.8125	6	0.05
GW	38	5	0.8125	-15.8125	6	-0.8125	-15.8125	6	0.05
GW	39	5	-0.8125	-15.8125	6	-0.8125	-14.1875	6	0.05
GW	40	5	-0.8125	-14.1875	6	0.8125	-14.1875	6	0.05
GW	41	15	0.8125	-14.1875	6	0.625	-14.375	12	0.05
GW	42	15	0.8125	-15.8125	6	0.625	-15.625	12	0.05
GW	43	15	-0.8125	-14.1875	6	-0.625	-14.375	12	0.05
GW	44	15	-0.8125	-15.8125	6	-0.625	-15.625	12	0.05
GW	45	3	0.625	-14.375	12	0.625	-15.625	12	0.05
GW	46	3	0.625	-15.625	12	-0.625	-15.625	12	0.05
GW	47	3	-0.625	-15.625	12	-0.625	-14.375	12	0.05
GW	48	3	-0.625	-14.375	12	0.625	-14.375	12	0.05
GW	49	15	0.625	-14.375	12	0.4375	-14.5625	18	0.05
GW	50	15	0.625	-15.625	12	0.4375	-15.4375	18	0.05
GW	51	15	-0.625	-14.375	12	-0.4375	-14.5625	18	0.05
GW	52	15	-0.625	-15.625	12	-0.4375	-15.4375	18	0.05
GW	53	3	0.4375	-14.5625	18	0.4375	-15.4375	18	0.05
GW	54	3	0.4375	-15.4375	18	-0.4375	-15.4375	18	0.05
GW	55	3	-0.4375	-15.4375	18	-0.4375	-14.5625	18	0.05
GW	56	3	-0.4375	-14.5625	18	0.4375	-14.5625	18	0.05
GW	57	15	0.4375	-14.5625	18	0.25	-14.75	24	0.05
GW	58	15	0.4375	-15.4375	18	0.25	-15.25	24	0.05
GW	59	15	-0.4375	-14.5625	18	-0.25	-14.75	24	0.05
GW	60	15	-0.4375	-15.4375	18	-0.25	-15.25	24	0.05
GW	61	1	0.25	-14.75	24	0.25	-15.25	24	0.05
GW	62	1	0.25	-15.25	24	-0.25	-15.25	24	0.05
GW	63	1	-0.25	-15.25	24	-0.25	-14.75	24	0.05
GW	64	1	-0.25	-14.75	24	0.25	-14.75	24	0.05
GW	100	19	0	-L	H	0	L	H	0.001
GW	101	19	0	-L	H-lambda/2	0	L	H-lambda/2	0.001
GW	102	1	0	-0.05	H-lambda/2-S	0	0.05	H-lambda/2-S	0.001
GW	103	1	0	-0.05	H-0.75*lambda	0	0.05	H-0.75*lambda	0.001
GE	1
LD	5	0	0	0	58000000
LD	7	0	0	0	4.5	0.002
GN	2	0	0	0	17	0.015
EK
EX	0	102	1	0	1	0	0
TL	100	10	101	10	-400	lambda/2	0	0	0	0
TL	101	10	102	1	400	S	0	0	0	0
TL	102	1	103	1	400	lambda/4-S	0	0	1e+99	1e+99
FR	0	0	0	0	freq	0
EN
