CM 
CE
SY freq=7.1
SY R=9
SY B=4
SY Z1=1
SY X2=-2.56115, Y2=-1.43592, Z2=2
SY X3=2.63172, Y3=3.097442, Z3=3
SY X4=1.345544, Y4=-0.85768, Z4=4
SY X5=-0.87185, Y5=-2.21044, Z5=5
SY X6=-2.0963, Y6=-2.78179, Z6=6
SY X7=-3.74087, Y7=4.24235, Z7=7
SY X8=1.481078, Y8=4.890603, Z8=8
SY X9=-1.46545, Y9=-0.82121, Z9=9
SY X10=-2.95544, Y10=4.613513, Z10=10
SY X11=-3.35007, Y11=-0.49373, Z11=11
SY X12=2.656428, Y12=-5.9389, Z12=12
GW	1	10	0	0	B	R	0	B	0.001
GW	2	10	0	0	B	-R	0	B	0.001
GW	3	10	0	0	B	0	R	B	0.001
GW	4	10	0	0	B	0	-R	B	0.001
GW	5	5	0	0	B	0	0	B+Z1	0.001
GW	6	5	0	0	B+Z1	X2	Y2	B+Z2	0.001
GW	7	5	X2	Y2	B+Z2	X3	Y3	B+Z3	0.001
GW	8	5	X3	Y3	B+Z3	X4	Y4	B+Z4	0.001
GW	9	5	X4	Y4	B+Z4	X5	Y5	B+Z5	0.001
GW	10	5	X5	Y5	B+Z5	X6	Y6	B+Z6	0.001
GW	11	5	X6	Y6	B+Z6	X7	Y7	B+Z7	0.001
GW	12	5	X7	Y7	B+Z7	X8	Y8	B+Z8	0.001
GW	13	5	X8	Y8	B+Z8	X9	Y9	B+Z9	0.001
GW	14	5	X9	Y9	B+Z9	X10	Y10	B+Z10	0.001
GW	15	5	X10	Y10	B+Z10	X11	Y11	B+Z11	0.001
GW	16	5	X11	Y11	B+Z11	X12	Y12	B+Z12	0.001
GE	1
LD	5	0	0	0	58000000
GN	2	0	0	0	17	0.015
EK
EX	0	5	1	0	1	0	0
FR	0	0	0	0	freq	0
EN
