CM 
CE
SY freq=7.1
SY R=9
SY B=4
SY H1=1.268285
SY X2=4.643072, Y2=5.417549, Z2=4.435061
SY X3=2.578729, Y3=-3.55848, Z3=9.112102
SY X4=-4.82398, Y4=-1.55155, Z4=1.926488
SY X5=-0.32007, Y5=2.958495, Z5=2.464718
GW	1	10	0	0	B	R	0	B	0.001
GW	2	10	0	0	B	-R	0	B	0.001
GW	3	10	0	0	B	0	R	B	0.001
GW	4	10	0	0	B	0	-R	B	0.001
GW	5	5	0	0	B	0	0	B+1	0.001
GW	6	5	0	0	B+1	X2	Y2	B+4	0.001
GW	7	5	X2	Y2	B+4	X3	Y3	B+7	0.001
GW	8	5	X3	Y3	B+7	X4	Y4	B+10	0.001
GW	9	5	X4	Y4	B+10	X5	Y5	B+12	0.001
GE	1
LD	5	0	0	0	58000000
GN	2	0	0	0	17	0.015
EK
EX	0	5	1	0	1	0	0
FR	0	0	0	0	freq	0
EN
