CM 
CE
SY s=5.010298
SY h1=9.894059
SY h2=10.29991
GW	1	20	0	0	0	0	0	h1	1.e-3
GW	2	20	-s	0	0	-s	0	h2	1.e-3
GE	1
GN	2	0	0	0	81	5.0
EK
EX	0	1	1	0	1	0	0
FR	0	0	0	0	7.29	0
EN
