CE
GW	1	47	0	0	0.1	0	0	2.5	1.e-3
GW	2	39	0	0	0.1	0.765606	1.8483364	0	1.e-3
GW	3	39	0	0	0.1	1.41465544	1.41465544	0	1.e-3
GW	4	39	0	0	0.1	1.8483364	0.765606	0	1.e-3
GW	5	39	0	0	0.1	2.0006249	-2.45e-16	0	1.e-3
GW	6	39	0	0	0.1	1.8483364	-0.765606	0	1.e-3
GW	7	39	0	0	0.1	1.41465544	-1.4146554	0	1.e-3
GW	8	39	0	0	0.1	0.765606	-1.8483364	0	1.e-3
GW	9	39	0	0	0.1	-1.225e-16	-2.0006249	0	1.e-3
GW	10	39	0	0	0.1	-0.765606	-1.8483364	0	1.e-3
GW	11	39	0	0	0.1	-1.4146554	-1.4146554	0	1.e-3
GW	12	39	0	0	0.1	-1.8483364	-0.765606	0	1.e-3
GW	13	39	0	0	0.1	-2.0006249	2.3882e-32	0	1.e-3
GW	14	39	0	0	0.1	-1.8483364	0.765606	0	1.e-3
GW	15	39	0	0	0.1	-1.4146554	1.41465544	0	1.e-3
GW	16	39	0	0	0.1	-0.765606	1.8483364	0	1.e-3
GW	17	39	0	0	0.1	-1.225e-16	2.0006249	0	1.e-3
GE	1
EK
EX	0	1	1	0	1	0
GN	3	0	0	0	13	0.005
FR	0	1	0	0	29.2	0
