CE
GW	1	5	0	0	3	1	0	3	1.e-3
GW	2	5	1	0	3	1	0	4	1.e-3
GW	4	5	0	0	4	0	0	3	1.e-3
GW	3	5	0	0	4	1	0	4	1.e-3
GW	5	5	4	0	3	5	0	3	1.e-3
GW	6	5	5	0	3	5	0	4	1.e-3
GW	8	5	4	0	4	4	0	3	1.e-3
GW	7	5	4	0	4	5	0	4	1.e-3
GW	9	5	8	0	3	9	0	3	1.e-3
GW	10	5	9	0	3	9	0	4	1.e-3
GW	12	5	8	0	4	8	0	3	1.e-3
GW	11	5	8	0	4	9	0	4	1.e-3
GW	13	5	12	0	3	13	0	3	1.e-3
GW	14	5	13	0	3	13	0	4	1.e-3
GW	16	5	12	0	4	12	0	3	1.e-3
GW	15	5	12	0	4	13	0	4	1.e-3
GE	0
EK
EX	0	1	3	0	1	0
EX	0	3	3	0	-1	0
EX	0	5	3	0	-9.06308e-1	4.22618e-1
EX	0	7	3	0	9.06308e-1	-4.22618e-1
EX	0	9	3	0	-1	1.225e-16
EX	0	11	3	0	1	0
EX	0	13	3	0	9.06308e-1	-4.22618e-1
EX	0	15	3	0	-9.06308e-1	4.22618e-1
GN	2	0	0	0	13	0.005
FR	0	1	0	0	7	0
