CM 
CE
SY freq=7.1
SY H=24
SY lambda=300/freq
SY vm=0.9736
SY vd=0.964
SY ivf=1.0106
SY L=lambda*vm*vd*ivf/4
SY t1=60
SY t2=60
GW	1	20	0	0	H	0	L*sin(t1)	H-L*cos(t1)	0.001
GW	2	20	0	0	H	0	-L*sin(t2)	H-L*cos(t2)	0.001
GE	1
LD	5	0	0	0	58000000
LD	7	0	0	0	4.5	0.002
GN	2	0	0	0	17	0.015
EK
EX	0	1	1	0	1	0	0
EX	0	2	1	0	-1	0	0
FR	0	0	0	0	freq	0
EN
