CE
GW	1	37	0	0	5	0	0	15	1.e-3
GW	2	37	0	0	5	0	-10.5	5	1.e-3
GW	3	37	0	0	5	-5	-9.25	5	1.e-3
GW	4	37	0	0	5	2	-10.25	5	1.e-3
GW	5	19	0	0	5	-10.5	0	5	1.e-3
GW	7	7	0	0	5	10.5	0	5	1.e-3
GE	0
EK
LD	5	0	0	0	5.8e7	0
EX	0	1	1	0	1	0
GN	2	0	0	0	17	0.015
FR	0	1	0	0	7.1	0
