CM 
CE
SY w=1
SY h=3
SY D=2.5
SY theta=30
SY tau=D*cos(theta)
SY ph=170
GW	1	5	0	0	h	0	w	h	0.001
GW	2	5	0	w	h	w	w	h	0.001
GW	3	5	w	0	h	w	w	h	0.001
GW	4	5	0	0	h	w	0	h	0.001
GE	1
GN	2	0	0	0	13	0.005
EK
EX	0	2	3	0	1	0	0
EX	0	4	3	0	-1	0	0
FR	0	0	0	0	7	0
EN
