CM 
CE
SY ph=144.2271
GW	1	5	-1.6	0	1.5	-0.1	0	1.5	1.e-3
GW	2	5	-1.6	0	3	-0.1	0	3	1.e-3
GW	3	5	-1.6	0	1.5	-1.6	0	3	1.e-3
GW	4	5	-0.1	0	1.5	-0.1	0	3	1.e-3
GW	5	5	0.1	0	3	1.6	0	3	1.e-3
GW	6	5	0.1	0	1.5	1.6	0	1.5	1.e-3
GW	7	5	0.1	0	3	0.1	0	1.5	1.e-3
GW	8	5	1.6	0	3	1.6	0	1.5	1.e-3
GW	9	5	2	0	1.5	3.5	0	1.5	1.e-3
GW	10	5	2	0	3	3.5	0	3	1.e-3
GW	11	5	3.5	0	3	3.5	0	1.5	1.e-3
GW	12	5	2	0	3	2	0	1.5	1.e-3
GW	13	5	3.7	0	1.5	5.2	0	1.5	1.e-3
GW	14	5	3.7	0	3	5.2	0	3	1.e-3
GW	15	5	5.2	0	3	5.2	0	1.5	1.e-3
GW	16	5	3.7	0	3	3.7	0	1.5	1.e-3
GE	-1
GN	2	0	0	0	13	0.005
EK
EX	0	1	3	0	1	0	0
EX	0	6	3	0	-1	0	0
EX	0	9	3	0	cos(ph)	sin(ph)	0
EX	0	13	3	0	cos(ph+180)	sin(ph+180)	0
FR	0	0	0	0	7	0
EN
