CM 
CE
SY w=1
SY d=2
SY s=3.5
SY ph=209.7889
GW	1	9	0	0	1	w	0	1	0.001
GW	2	9	w	0	1	w	0	2	0.001
GW	3	9	w	0	2	0	0	2	0.001
GW	4	9	0	0	2	0	0	1	0.001
GW	5	9	d	0	1	w+d	0	1	0.001
GW	6	9	w+d	0	1	w+d	0	2	0.001
GW	7	9	w+d	0	2	d	0	2	0.001
GW	8	9	d	0	2	d	0	1	0.001
GW	9	9	s	0	1	w+s	0	1	0.001
GW	10	9	w+s	0	1	w+s	0	2	0.001
GW	11	9	w+s	0	2	0+s	0	2	0.001
GW	12	9	s	0	2	0+s	0	1	0.001
GW	13	9	d+s	0	1	w+d+s	0	1	0.001
GW	14	9	w+d+s	0	1	w+d+s	0	2	0.001
GW	15	9	w+d+s	0	2	d+s	0	2	0.001
GW	16	9	d+s	0	2	d+s	0	1	0.001
GE	1
GN	2	0	0	0	13	0.005
EK
EX	0	1	5	0	1	0	0
EX	0	5	5	0	-1	0	0
EX	0	9	5	0	cos(ph)	sin(ph)	0
EX	0	13	5	0	cos(ph+180)	sin(ph+180)	0
FR	0	0	0	0	7	0
EN
