CM 
CE
SY d=7
SY ph=133
SY H=8
GW	1	5	0	1	H	2	1	H	0.001
GW	2	5	2	1	H	2	-1	H	0.001
GW	3	5	0	-1	H	2	-1	H	0.001
GW	4	5	0	-1	H	0	1	H	0.001
GW	5	5	0+d	1	H	2+d	1	H	0.001
GW	6	5	2+d	1	H	2+d	-1	H	0.001
GW	7	5	0+d	-1	H	2+d	-1	H	0.001
GW	8	5	0+d	-1	H	0+d	1	H	0.001
GE	-1
GN	2	0	0	0	17	0.015
EK
EX	0	1	3	0	1	0	0
EX	0	3	3	0	-1	0	0
EX	0	5	3	0	cos(ph)	sin(ph)	0
EX	0	7	3	0	cos(ph+180)	sin(ph+180)	0
FR	0	0	0	0	7	0
EN
