CM 
CE
SY H=0.005
GW	1	1	-0.2181176	1.09655128	H	0.21811761	1.09655128	H	1.e-3
GW	2	1	0.21811761	1.09655128	H	0.6211464	0.92961129	H	1.e-3
GW	3	1	0.6211464	0.92961129	H	0.92961129	0.6211464	H	1.e-3
GW	4	1	0.92961129	0.6211464	H	1.09655128	0.21811761	H	1.e-3
GW	5	1	1.09655128	0.21811761	H	1.09655128	-0.2181176	H	1.e-3
GW	6	1	1.09655128	-0.2181176	H	0.92961129	-0.6211464	H	1.e-3
GW	7	1	0.92961129	-0.6211464	H	0.6211464	-0.9296113	H	1.e-3
GW	8	1	0.6211464	-0.9296113	H	0.21811761	-1.0965513	H	1.e-3
GW	9	1	0.21811761	-1.0965513	H	-0.2181176	-1.0965513	H	1.e-3
GW	10	1	-0.2181176	-1.0965513	H	-0.6211464	-0.9296113	H	1.e-3
GW	11	1	-0.6211464	-0.9296113	H	-0.9296113	-0.6211464	H	1.e-3
GW	12	1	-0.9296113	-0.6211464	H	-1.0965513	-0.2181176	H	1.e-3
GW	13	1	-1.0965513	-0.2181176	H	-1.0965513	0.21811761	H	1.e-3
GW	14	1	-1.0965513	0.21811761	H	-0.9296113	0.6211464	H	1.e-3
GW	15	1	-0.9296113	0.6211464	H	-0.6211464	0.92961129	H	1.e-3
GW	16	1	-0.6211464	0.92961129	H	-0.2181176	1.09655128	H	1.e-3
GE	1
LD	5	0	0	0	58000000
GN	2	0	0	0	17	0.015
EK
EX	0	1	1	0	1	0	0
FR	0	0	0	0	1.825	0
EN
