CM 
CE
SY h=2
SY ph=180
GW	1	5	0	0	2	1	0	2	1.e-3
GW	2	5	1	0	2	1	-1	2	1.e-3
GW	3	5	1	-1	2	0	-1	2	1.e-3
GW	4	5	0	-1	2	0	0	2	1.e-3
GW	5	5	0	0	2+h	1	0	2+h	1.e-3
GW	6	5	1	0	2+h	1	-1	2+h	1.e-3
GW	7	5	1	-1	2+h	0	-1	2+h	1.e-3
GW	8	5	0	-1	2+h	0	0	2+h	1.e-3
GE	-1
GN	2	0	0	0	13	0.005
EK
EX	0	1	3	0	1	0	0	0
EX	0	5	3	0	cos(ph)	sin(ph)	0	0
FR	0	0	0	0	7	0
EN
