CE
GW	1	5	-0.5	0	3.5	0.5	0	3.5	0.03978874
GW	2	5	-0.5	0	2.5	0.5	0	2.5	0.03978874
GW	3	5	-0.5	0	3.5	-0.5	0	2.5	0.03978874
GW	4	5	0.5	0	3.5	0.5	0	2.5	0.03978874
GW	5	5	5.117015	0	3.5	4.117015	0	3.5	0.03978874
GW	6	5	5.117015	0	2.5	4.117015	0	2.5	0.03978874
GW	7	5	5.117015	0	3.5	5.117015	0	2.5	0.03978874
GW	8	5	4.117015	0	3.5	4.117015	0	2.5	0.03978874
GE	0
EK
LD	4	1	3	3	56	-88
LD	4	5	3	3	56	-88
EX	0	2	3	0	1	0
EX	0	6	3	0	-1	0
GN	2	0	0	0	13	0.005
GD	2	0	0	0	13	0.005
FR	0	1	0	0	7	0
