CM 
CE
SY ph=153.5765
GW	1	9	2.5	0	1.5	1.5	0	1.5	1.e-3
GW	2	9	2.5	0	2.5	1.5	0	2.5	1.e-3
GW	3	9	2.5	0	1.5	2.5	0	2.5	1.e-3
GW	4	9	1.5	0	1.5	1.5	0	2.5	1.e-3
GW	5	9	1.3	0	2.5	0.3	0	2.5	1.e-3
GW	6	9	1.3	0	1.5	0.3	0	1.5	1.e-3
GW	7	9	1.3	0	2.5	1.3	0	1.5	1.e-3
GW	8	9	0.3	0	2.5	0.3	0	1.5	1.e-3
GW	9	9	-0.3	0	1.5	-1.3	0	1.5	1.e-3
GW	10	9	-0.3	0	2.5	-1.3	0	2.5	1.e-3
GW	11	9	-1.3	0	2.5	-1.3	0	1.5	1.e-3
GW	12	9	-0.3	0	2.5	-0.3	0	1.5	1.e-3
GW	13	9	-1.5	0	1.5	-2.5	0	1.5	1.e-3
GW	14	9	-1.5	0	2.5	-2.5	0	2.5	1.e-3
GW	15	9	-2.5	0	2.5	-2.5	0	1.5	1.e-3
GW	16	9	-1.5	0	2.5	-1.5	0	1.5	1.e-3
GE	-1
GN	2	0	0	0	13	0.005
EK
EX	0	1	5	0	1	0	0
EX	0	6	5	0	-1	0	0
EX	0	9	5	0	cos(ph)	sin(ph)	0
EX	0	13	5	0	cos(ph+180)	sin(ph+180)	0
FR	0	0	0	0	7	0
EN
