CM 
CE
SY h=1
SY w=2
SY D=6
SY theta=45
SY tau=D*cos(theta)
SY ph=tau*7*360/300
GW	1	5	0	0	0.5	0	0	h+0.5	0.001
GW	2	5	w	0	0.5	w	0	h+0.5	0.001
GW	3	5	0	0	0.5	w	0	0.5	0.001
GW	4	5	0	0	h+0.5	w	0	h+0.5	0.001
GW	5	5	0+D	0	0.5	0+D	0	h+0.5	0.001
GW	6	5	w+D	0	0.5	w+D	0	h+0.5	0.001
GW	7	5	0+D	0	0.5	w+D	0	0.5	0.001
GW	8	5	0+D	0	h+0.5	w+D	0	h+0.5	0.001
GE	1
GN	2	0	0	0	13	0.005
EK
EX	0	3	3	0	1	0	0
EX	0	7	3	0	cos(ph+180)	sin(ph+180)	0
FR	0	0	0	0	7	0
EN
