CM Rectangle, bottom fed, 40 meters, #14 copper 
CM L. B. Cebik, W4RNL
CE
GW	1	15	0	-7.4676	6.096	0	-7.4676	12.192	8.14e-4
GW	2	37	0	-7.4676	12.192	0	7.4676	12.192	8.14e-4
GW	3	15	0	7.4676	12.192	0	7.4676	6.096	8.14e-4
GW	4	37	0	7.4676	6.096	0	-7.4676	6.096	8.14e-4
GE	0
EK
LD	5	0	0	0	5.8e7	0
EX	0	4	19	0	1	0
GN	2	0	0	0	17	0.015
FR	0	1	0	0	7.15	0
