CM 
CE
SY l=3
SY D=l+0.5
SY r1=850
SY r2=920
GW	1	5	0	0	3	0	0	4	0.001
GW	2	5	l	0	3	l	0	4	0.001
GW	3	5	0	0	3	l	0	3	0.001
GW	4	5	0	0	4	l	0	4	0.001
GW	5	5	0+D	0	3	0+D	0	4	0.001
GW	6	5	l+D	0	3	l+D	0	4	0.001
GW	7	5	0+D	0	3	l+D	0	3	0.001
GW	8	5	0+D	0	4	l+D	0	4	0.001
GE	1
LD	4	1	3	0	r1	0
LD	4	5	3	0	r2	0
GN	2	0	0	0	13	0.005
EK
EX	0	2	3	0	1	0	0
EX	0	6	3	0	cos(180)	sin(180)	0
FR	0	0	0	0	7	0
EN
