CM 
CE
SY r1=800
GW	1	5	0	0	2	2	0	2	0.001
GW	2	5	2	0	2	2	0	4	0.001
GW	3	5	2	0	4	0	0	4	0.001
GW	4	5	0	0	4	0	0	2	0.001
GE	-1
LD	4	3	3	0	r1

GN	2	0	0	0	13	0.005
EK
EX	0	1	3	0	1	0	0
FR	0	0	0	0	7	0
EN
