CM 
CE
SY r1=100
SY s=5
GW	1	5	0	0	2	2	0	2	0.001
GW	2	5	2	0	2	2	0	4	0.001
GW	3	5	2	0	4	0	0	4	0.001
GW	4	5	0	0	4	0	0	2	0.001
GW	5	5	0+s	0	2	2+s	0	2	0.001
GW	6	5	2+s	0	2	2+s	0	4	0.001
GW	7	5	2+s	0	4	0+s	0	4	0.001
GW	8	5	0+s	0	4	0+s	0	2	0.001
GE	-1
LD	4	3	3	0	r1
LD	4	7	3	0	r1
GN	2	0	0	0	13	0.005
EK
EX	0	1	3	0	1	0	0
EX	0	5	3	0	-1	0	0
FR	0	0	0	0	7	0
EN
