CM 
CE
SY freq=21.15
SY H=26
SY lambda=300/freq
SY corr=1.008419
SY S=corr*lambda/4
SY theta=45.20121
SY SMA=S*cos(theta)
SY SMiA=S*sin(theta)
SY offset=0.25
GW	1	5	0	0.1732051	0	0	0.1732051	4	7.e-3
GW	2	5	0.15	-0.086603	0	0.15	-0.086603	4	7.e-3
GW	3	5	-0.15	-0.086603	0	-0.15	-0.086603	4	7.e-3
GW	4	1	0	0.1732051	4	0.15	-0.086603	4	7.e-3
GW	5	1	0.15	-0.086603	4	-0.15	-0.086603	4	7.e-3
GW	6	1	-0.15	-0.086603	4	0	0.1732051	4	7.e-3
GW	7	5	0	0.1732051	4	0	0.1732051	8	7.e-3
GW	8	5	0.15	-0.086603	4	0.15	-0.086603	8	7.e-3
GW	9	5	-0.15	-0.086603	4	-0.15	-0.086603	8	7.e-3
GW	10	1	0	0.1732051	8	0.15	-0.086603	8	7.e-3
GW	11	1	0.15	-0.086603	8	-0.15	-0.086603	8	7.e-3
GW	12	1	-0.15	-0.086603	8	0	0.1732051	8	7.e-3
GW	13	5	0	0.1732051	8	0	0.1732051	12	7.e-3
GW	14	5	0.15	-0.086603	8	0.15	-0.086603	12	7.e-3
GW	15	5	-0.15	-0.086603	8	-0.15	-0.086603	12	7.e-3
GW	16	1	0	0.1732051	12	0.15	-0.086603	12	7.e-3
GW	17	1	0.15	-0.086603	12	-0.15	-0.086603	12	7.e-3
GW	18	1	-0.15	-0.086603	12	0	0.1732051	12	7.e-3
GW	19	5	0	0.1732051	12	0	0.1732051	16	7.e-3
GW	20	5	0.15	-0.086603	12	0.15	-0.086603	16	7.e-3
GW	21	5	-0.15	-0.086603	12	-0.15	-0.086603	16	7.e-3
GW	22	1	0	0.1732051	16	0.15	-0.086603	16	7.e-3
GW	23	1	0.15	-0.086603	16	-0.15	-0.086603	16	7.e-3
GW	24	1	-0.15	-0.086603	16	0	0.1732051	16	7.e-3
GW	25	5	0	0.1732051	16	0	0.1732051	20	7.e-3
GW	26	5	0.15	-0.086603	16	0.15	-0.086603	20	7.e-3
GW	27	5	-0.15	-0.086603	16	-0.15	-0.086603	20	7.e-3
GW	28	1	0	0.1732051	20	0.15	-0.086603	20	7.e-3
GW	29	1	0.15	-0.086603	20	-0.15	-0.086603	20	7.e-3
GW	30	1	-0.15	-0.086603	20	0	0.1732051	20	7.e-3
GW	31	5	0	0.1732051	20	0	0.1732051	24	7.e-3
GW	32	5	0.15	-0.086603	20	0.15	-0.086603	24	7.e-3
GW	33	5	-0.15	-0.086603	20	-0.15	-0.086603	24	7.e-3
GW	34	1	0	0.1732051	24	0.15	-0.086603	24	7.e-3
GW	35	1	0.15	-0.086603	24	-0.15	-0.086603	24	7.e-3
GW	36	1	-0.15	-0.086603	24	0	0.1732051	24	7.e-3
GW	37	7	0	4	0	0	0.1732051	4	2.e-3
GW	38	7	3.4641016	-2	0	0.15	-0.086603	4	2.e-3
GW	39	7	-3.464102	-2	0	-0.15	-0.086603	4	2.e-3
GW	40	11	0	4	0	0	0.1732051	8	2.e-3
GW	41	11	3.4641016	-2	0	0.15	-0.086603	8	2.e-3
GW	42	11	-3.464102	-2	0	-0.15	-0.086603	8	2.e-3
GW	43	15	0	4	0	0	0.1732051	12	2.e-3
GW	44	15	3.4641016	-2	0	0.15	-0.086603	12	2.e-3
GW	45	15	-3.464102	-2	0	-0.15	-0.086603	12	2.e-3
GW	46	19	0	4	0	0	0.1732051	16	2.e-3
GW	47	19	3.4641016	-2	0	0.15	-0.086603	16	2.e-3
GW	48	19	-3.464102	-2	0	-0.15	-0.086603	16	2.e-3
GW	49	25	0	5	0	0	0.1732051	20	2.e-3
GW	50	25	4.330127	-2.5	0	0.15	-0.086603	20	2.e-3
GW	51	25	-4.330127	-2.5	0	-0.15	-0.086603	20	2.e-3
GW	52	29	0	5	0	0	0.1732051	24	2.e-3
GW	53	29	4.330127	-2.5	0	0.15	-0.086603	24	2.e-3
GW	54	29	-4.330127	-2.5	0	-0.15	-0.086603	24	2.e-3
GW	55	1	0	0.1732051	24	0	0.1732051	25	7.e-3
GW	56	1	0.15	-0.086603	24	0.15	-0.086603	25	7.e-3
GW	57	1	-0.15	-0.086603	24	-0.15	-0.086603	25	7.e-3
GW	58	1	0	0.1732051	25	0.15	-0.086603	25	7.e-3
GW	59	1	0.15	-0.086603	25	-0.15	-0.086603	25	7.e-3
GW	60	1	-0.15	-0.086603	25	0	0.1732051	25	7.e-3
GW	61	1	0	0.1732051	25	0	0	25	7.e-3
GW	62	1	0.15	-0.086603	25	0	0	25	7.e-3
GW	63	1	-0.15	-0.086603	25	0	0	25	7.e-3
GW	64	1	0	0	25	0	0	25.5	0.025
GW	65	5	0	0	25.5	0	0	29.5	0.025
GW	66	3	0	0	25.5	0	2	25.5	0.025
GW	67	3	0	0	25.5	0	-2	25.5	0.025
GW	68	5	0	2	25.5	3	2	25.5	0.025
GW	69	3	0	2	25.5	-2	2	25.5	0.025
GW	70	5	0	-2	25.5	3	-2	25.5	0.025
GW	71	3	0	-2	25.5	-2	-2	25.5	0.025
GW	72	1	offset	0.05	H	offset	-0.05	H	0.001
GW	73	3	offset	0.05	H	offset	SMiA	H+SMA	0.001
GW	74	3	offset	SMiA	H+SMA	offset	0	H+2*SMA	0.001
GW	75	3	offset	-0.05	H	offset	-SMiA	H+SMA	0.001
GW	76	3	offset	-SMiA	H+SMA	offset	0	H+2*SMA	0.001
GE	1
LD	5	0	0	0	58000000
LD	7	0	0	0	4.5	0.002
GN	2	0	0	0	17	0.015
EK
EX	0	72	1	0	1	0	0
FR	0	0	0	0	freq	0
EN
