CM 
CE
SY r=0.002
SY da=5
SY a1=45
SY a2=a1-da
SY a3=a2-da
SY a4=a3-da
SY a5=a4-da
SY a6=a5-da
SY a7=a6-da
SY a8=a7-da
SY f=0.9965
SY l1=1.5
SY l2=1.3
SY l3=f*l2
SY l4=f*l3
SY l5=f*l4
SY l6=f*l5
SY l7=f*l6
SY l8=f*l7
SY y1=l1*cos(a1), z1=l1*sin(a1)
SY y2=l2*cos(a2), z2=l2*sin(a2)
SY y3=l3*cos(a3), z3=l3*sin(a3)
SY y4=l4*cos(a4), z4=l4*sin(a4)
SY y5=l5*cos(a5), z5=l5*sin(a5)
SY y6=l6*cos(a6), z6=l6*sin(a6)
SY y7=l7*cos(a7), z7=l7*sin(a7)
SY y8=l8*cos(a8), z8=l8*sin(a8)
SY h=26
SY tapper=1
SY rtap=1-tapper, inctap=tapper
SY inc=inctap*0.0254/2
SY r8=(r*rtap)+3/8*inc, r7=(r*rtap)+4/8*inc, r6=(r*rtap)+5/8*inc, r5=(r*rtap)+6/8*inc
SY r4=(r*rtap)+7/8*inc, r3=(r*rtap)+8/8*inc, r2=(r*rtap)+9/8*inc, r1=(r*rtap)+10/8*inc
SY spc=0.2
SY L=20
GW	1	19	-1.e-8	0.14433757	0	-1.e-8	0.14433757	4	7.e-3
GW	2	19	0.12500002	-0.072169	0	0.12500002	-0.072169	4	7.e-3
GW	3	19	-0.125	-0.072169	0	-0.125	-0.072169	4	7.e-3
GW	4	1	-1.e-8	0.14433757	4	0.12500002	-0.072169	4	7.e-3
GW	5	1	0.12500002	-0.072169	4	-0.125	-0.072169	4	7.e-3
GW	6	1	-0.125	-0.072169	4	-1.e-8	0.14433757	4	7.e-3
GW	7	19	-1.e-8	0.14433757	4	-1.e-8	0.14433757	8	7.e-3
GW	8	19	0.12500002	-0.072169	4	0.12500002	-0.072169	8	7.e-3
GW	9	19	-0.125	-0.072169	4	-0.125	-0.072169	8	7.e-3
GW	10	1	-1.e-8	0.14433757	8	0.12500002	-0.072169	8	7.e-3
GW	11	1	0.12500002	-0.072169	8	-0.125	-0.072169	8	7.e-3
GW	12	1	-0.125	-0.072169	8	-1.e-8	0.14433757	8	7.e-3
GW	13	19	-1.e-8	0.14433757	8	-1.e-8	0.14433757	12	7.e-3
GW	14	19	0.12500002	-0.072169	8	0.12500002	-0.072169	12	7.e-3
GW	15	19	-0.125	-0.072169	8	-0.125	-0.072169	12	7.e-3
GW	16	1	-1.e-8	0.14433757	12	0.12500002	-0.072169	12	7.e-3
GW	17	1	0.12500002	-0.072169	12	-0.125	-0.072169	12	7.e-3
GW	18	1	-0.125	-0.072169	12	-1.e-8	0.14433757	12	7.e-3
GW	19	19	-1.e-8	0.14433757	12	-1.e-8	0.14433757	16	7.e-3
GW	20	19	0.12500002	-0.072169	12	0.12500002	-0.072169	16	7.e-3
GW	21	19	-0.125	-0.072169	12	-0.125	-0.072169	16	7.e-3
GW	22	1	-1.e-8	0.14433757	16	0.12500002	-0.072169	16	7.e-3
GW	23	1	0.12500002	-0.072169	16	-0.125	-0.072169	16	7.e-3
GW	24	1	-0.125	-0.072169	16	-1.e-8	0.14433757	16	7.e-3
GW	25	19	-1.e-8	0.14433757	16	-1.e-8	0.14433757	20	7.e-3
GW	26	19	0.12500002	-0.072169	16	0.12500002	-0.072169	20	7.e-3
GW	27	19	-0.125	-0.072169	16	-0.125	-0.072169	20	7.e-3
GW	28	1	-1.e-8	0.14433757	20	0.12500002	-0.072169	20	7.e-3
GW	29	1	0.12500002	-0.072169	20	-0.125	-0.072169	20	7.e-3
GW	30	1	-0.125	-0.072169	20	-1.e-8	0.14433757	20	7.e-3
GW	31	19	-1.e-8	0.14433757	20	-1.e-8	0.14433757	24	7.e-3
GW	32	19	0.12500002	-0.072169	20	0.12500002	-0.072169	24	7.e-3
GW	33	19	-0.125	-0.072169	20	-0.125	-0.072169	24	7.e-3
GW	34	1	-1.e-8	0.14433757	24	0.12500002	-0.072169	24	7.e-3
GW	35	1	0.12500002	-0.072169	24	-0.125	-0.072169	24	7.e-3
GW	36	1	-0.125	-0.072169	24	-1.e-8	0.14433757	24	7.e-3
GW	37	27	-1.e-8	3.99999999	0	-1.e-8	0.14433757	4	2.e-3
GW	38	27	3.46410161	-2	0	0.12500002	-0.072169	4	2.e-3
GW	39	27	-3.464102	-2	0	-0.125	-0.072169	4	2.e-3
GW	40	43	-1.e-8	3.99999999	0	-1.e-8	0.14433757	8	2.e-3
GW	41	43	3.46410161	-2	0	0.12500002	-0.072169	8	2.e-3
GW	42	43	-3.464102	-2	0	-0.125	-0.072169	8	2.e-3
GW	43	61	-1.e-8	3.99999999	0	-1.e-8	0.14433757	12	2.e-3
GW	44	61	3.46410161	-2	0	0.12500002	-0.072169	12	2.e-3
GW	45	61	-3.464102	-2	0	-0.125	-0.072169	12	2.e-3
GW	46	79	-1.e-8	3.99999999	0	-1.e-8	0.14433757	16	2.e-3
GW	47	79	3.46410161	-2	0	0.12500002	-0.072169	16	2.e-3
GW	48	79	-3.464102	-2	0	-0.125	-0.072169	16	2.e-3
GW	49	97	-1.e-8	4.99999998	0	-1.e-8	0.14433757	20	2.e-3
GW	50	97	4.33012701	-2.5	0	0.12500002	-0.072169	20	2.e-3
GW	51	97	-4.330127	-2.5	0	-0.125	-0.072169	20	2.e-3
GW	52	117	-1.e-8	4.99999998	0	-1.e-8	0.14433757	24	2.e-3
GW	53	117	4.33012701	-2.5	0	0.12500002	-0.072169	24	2.e-3
GW	54	117	-4.330127	-2.5	0	-0.125	-0.072169	24	2.e-3
GW	55	5	-1.e-8	0.14433757	24	-1.e-8	0.14433757	25	7.e-3
GW	56	5	0.12500002	-0.072169	24	0.12500002	-0.072169	25	7.e-3
GW	57	5	-0.125	-0.072169	24	-0.125	-0.072169	25	7.e-3
GW	58	1	-1.e-8	0.14433757	25	0.12500002	-0.072169	25	7.e-3
GW	59	1	0.12500002	-0.072169	25	-0.125	-0.072169	25	7.e-3
GW	60	1	-0.125	-0.072169	25	-1.e-8	0.14433757	25	7.e-3
GW	61	1	-1.e-8	0.14433757	25	0	0	25	7.e-3
GW	62	1	0.12500002	-0.072169	25	0	0	25	7.e-3
GW	63	1	-0.125	-0.072169	25	0	0	25	7.e-3
GW	64	3	0	0	25	0	0	25.5	0.025
GW	65	3	0	0	25.5	0	0	26.5	0.025
GW	66	9	0	0	25.5	0	1.99999999	25.5	0.025
GW	67	9	0	0	25.5	0	-2	25.5	0.025
GW	68	15	0	1.99999999	25.5	2.99999999	2	25.5	0.025
GW	69	9	0	1.99999999	25.5	-2	2.00000001	25.5	0.025
GW	70	15	0	-2	25.5	3	-2	25.5	0.025
GW	71	9	0	-2	25.5	-2	-2	25.5	0.025
GW	72	1	spc	0.08	h	spc	-0.08	h	r1
GW	73	1	spc	0.08	h	spc	y1	h+z1	r1
GW	74	1	spc	y1	h+z1	spc	y1+y2	h+z1+z2	r2
GW	75	1	spc	y1+y2	h+z1+z2	spc	y1+y2+y3	h+z1+z2+z3	r3
GW	76	1	spc	y1+y2+y3	h+z1+z2+z3	spc	y1+y2+y3+y4	h+z1+z2+z3+z4	r4
GW	77	1	spc	y1+y2+y3+y4	h+z1+z2+z3+z4	spc	y1+y2+y3+y4+y5	h+z1+z2+z3+z4+z5	r5
GW	78	1	spc	y1+y2+y3+y4+y5	h+z1+z2+z3+z4+z5	spc	y1+y2+y3+y4+y5+y6	h+z1+z2+z3+z4+z5+z6	r6
GW	79	1	spc	y1+y2+y3+y4+y5+y6	h+z1+z2+z3+z4+z5+z6	spc	y1+y2+y3+y4+y5+y6+y7	h+z1+z2+z3+z4+z5+z6+z7	r7
GW	80	1	spc	y1+y2+y3+y4+y5+y6+y7	h+z1+z2+z3+z4+z5+z6+z7	spc	y1+y2+y3+y4+y5+y6+y7+y8	h+z1+z2+z3+z4+z5+z6+z7+z8	r8
GW	81	1	spc	-0.08	h	spc	y1*-1	h+z1	r1
GW	82	1	spc	(y1)*-1	h+z1	spc	(y1+y2)*-1	h+z1+z2	r2
GW	83	1	spc	(y1+y2)*-1	h+z1+z2	spc	(y1+y2+y3)*-1	h+z1+z2+z3	r3
GW	84	1	spc	(y1+y2+y3)*-1	h+z1+z2+z3	spc	(y1+y2+y3+y4)*-1	h+z1+z2+z3+z4	r4
GW	85	1	spc	(y1+y2+y3+y4)*-1	h+z1+z2+z3+z4	spc	(y1+y2+y3+y4+y5)*-1	h+z1+z2+z3+z4+z5	r5
GW	86	1	spc	(y1+y2+y3+y4+y5)*-1	h+z1+z2+z3+z4+z5	spc	(y1+y2+y3+y4+y5+y6)*-1	h+z1+z2+z3+z4+z5+z6	r6
GW	87	1	spc	(y1+y2+y3+y4+y5+y6)*-1	h+z1+z2+z3+z4+z5+z6	spc	(y1+y2+y3+y4+y5+y6+y7)*-1	h+z1+z2+z3+z4+z5+z6+z7	r7
GW	88	1	spc	(y1+y2+y3+y4+y5+y6+y7)*-1	h+z1+z2+z3+z4+z5+z6+z7	spc	(y1+y2+y3+y4+y5+y6+y7+y8)*-1	h+z1+z2+z3+z4+z5+z6+z7+z8	r8
GE	1
LD	5	1	0	0	1390000
LD	5	2	0	0	1390000
LD	5	3	0	0	1390000
LD	5	4	0	0	1390000
LD	5	5	0	0	1390000
LD	5	6	0	0	1390000
LD	5	7	0	0	1390000
LD	5	8	0	0	1390000
LD	5	9	0	0	1390000
LD	5	10	0	0	1390000
LD	5	11	0	0	1390000
LD	5	12	0	0	1390000
LD	5	13	0	0	1390000
LD	5	14	0	0	1390000
LD	5	15	0	0	1390000
LD	5	16	0	0	1390000
LD	5	17	0	0	1390000
LD	5	18	0	0	1390000
LD	5	19	0	0	1390000
LD	5	20	0	0	1390000
LD	5	21	0	0	1390000
LD	5	22	0	0	1390000
LD	5	23	0	0	1390000
LD	5	24	0	0	1390000
LD	5	25	0	0	1390000
LD	5	26	0	0	1390000
LD	5	27	0	0	1390000
LD	5	28	0	0	1390000
LD	5	29	0	0	1390000
LD	5	30	0	0	1390000
LD	5	31	0	0	1390000
LD	5	32	0	0	1390000
LD	5	33	0	0	1390000
LD	5	34	0	0	1390000
LD	5	35	0	0	1390000
LD	5	36	0	0	1390000
LD	5	37	0	0	1390000
LD	5	38	0	0	1390000
LD	5	39	0	0	1390000
LD	5	40	0	0	1390000
LD	5	41	0	0	1390000
LD	5	42	0	0	1390000
LD	5	43	0	0	1390000
LD	5	44	0	0	1390000
LD	5	45	0	0	1390000
LD	5	46	0	0	1390000
LD	5	47	0	0	1390000
LD	5	48	0	0	1390000
LD	5	49	0	0	1390000
LD	5	50	0	0	1390000
LD	5	51	0	0	1390000
LD	5	52	0	0	1390000
LD	5	53	0	0	1390000
LD	5	54	0	0	1390000
LD	5	55	0	0	1390000
LD	5	56	0	0	1390000
LD	5	57	0	0	1390000
LD	5	58	0	0	1390000
LD	5	59	0	0	1390000
LD	5	60	0	0	1390000
LD	5	61	0	0	1390000
LD	5	62	0	0	1390000
LD	5	63	0	0	1390000
LD	5	64	0	0	1390000
LD	5	65	0	0	1390000
LD	5	66	0	0	1390000
LD	5	67	0	0	1390000
LD	5	68	0	0	37700000
LD	5	69	0	0	37700000
LD	5	70	0	0	37700000
LD	5	71	0	0	37700000
LD	5	72	0	0	37700000
LD	5	73	0	0	37700000
LD	5	74	0	0	37700000
LD	5	75	0	0	37700000
LD	5	76	0	0	37700000
LD	5	77	0	0	37700000
LD	5	78	0	0	37700000
LD	5	79	0	0	37700000
LD	5	80	0	0	37700000
LD	5	81	0	0	37700000
LD	5	82	0	0	37700000
LD	5	83	0	0	37700000
LD	5	84	0	0	37700000
LD	5	85	0	0	37700000
LD	5	86	0	0	37700000
LD	5	87	0	0	37700000
LD	5	88	0	0	37700000
GN	2	0	0	0	13	0.005
EK
EX	0	72	1	0	1	0	0
FR	0	0	0	0	7.1	0
EN
