CM 
CE
SY Total=44.35
SY W=9
SY H=(Total/2)-W
SY A=24
SY d=0.5
GW	1	19	-0.0721688	-0.125	0	-0.0721688	-0.125	4	7.e-3
GW	2	19	-0.0721687	0.1250002	0	-0.0721687	0.1250002	4	7.e-3
GW	3	19	0.1443377	1.8e-7	0	0.1443377	1.8e-7	4	7.e-3
GW	4	1	-0.0721688	-0.125	4	-0.0721687	0.1250002	4	7.e-3
GW	5	1	-0.0721687	0.1250002	4	0.1443377	1.8e-7	4	7.e-3
GW	6	1	0.1443377	1.8e-7	4	-0.0721688	-0.125	4	7.e-3
GW	7	19	-0.0721688	-0.125	4	-0.0721688	-0.125	8	7.e-3
GW	8	19	-0.0721687	0.1250002	4	-0.0721687	0.1250002	8	7.e-3
GW	9	19	0.1443377	1.8e-7	4	0.1443377	1.8e-7	8	7.e-3
GW	10	1	-0.0721688	-0.125	8	-0.0721687	0.1250002	8	7.e-3
GW	11	1	-0.0721687	0.1250002	8	0.1443377	1.8e-7	8	7.e-3
GW	12	1	0.1443377	1.8e-7	8	-0.0721688	-0.125	8	7.e-3
GW	13	19	-0.0721688	-0.125	8	-0.0721688	-0.125	12	7.e-3
GW	14	19	-0.0721687	0.1250002	8	-0.0721687	0.1250002	12	7.e-3
GW	15	19	0.1443377	1.8e-7	8	0.1443377	1.8e-7	12	7.e-3
GW	16	1	-0.0721688	-0.125	12	-0.0721687	0.1250002	12	7.e-3
GW	17	1	-0.0721687	0.1250002	12	0.1443377	1.8e-7	12	7.e-3
GW	18	1	0.1443377	1.8e-7	12	-0.0721688	-0.125	12	7.e-3
GW	19	19	-0.0721688	-0.125	12	-0.0721688	-0.125	16	7.e-3
GW	20	19	-0.0721687	0.1250002	12	-0.0721687	0.1250002	16	7.e-3
GW	21	19	0.1443377	1.8e-7	12	0.1443377	1.8e-7	16	7.e-3
GW	22	1	-0.0721688	-0.125	16	-0.0721687	0.1250002	16	7.e-3
GW	23	1	-0.0721687	0.1250002	16	0.1443377	1.8e-7	16	7.e-3
GW	24	1	0.1443377	1.8e-7	16	-0.0721688	-0.125	16	7.e-3
GW	25	19	-0.0721688	-0.125	16	-0.0721688	-0.125	20	7.e-3
GW	26	19	-0.0721687	0.1250002	16	-0.0721687	0.1250002	20	7.e-3
GW	27	19	0.1443377	1.8e-7	16	0.1443377	1.8e-7	20	7.e-3
GW	28	1	-0.0721688	-0.125	20	-0.0721687	0.1250002	20	7.e-3
GW	29	1	-0.0721687	0.1250002	20	0.1443377	1.8e-7	20	7.e-3
GW	30	1	0.1443377	1.8e-7	20	-0.0721688	-0.125	20	7.e-3
GW	31	19	-0.0721688	-0.125	20	-0.0721688	-0.125	24	7.e-3
GW	32	19	-0.0721687	0.1250002	20	-0.0721687	0.1250002	24	7.e-3
GW	33	19	0.1443377	1.8e-7	20	0.1443377	1.8e-7	24	7.e-3
GW	34	1	-0.0721688	-0.125	24	-0.0721687	0.1250002	24	7.e-3
GW	35	1	-0.0721687	0.1250002	24	0.1443377	1.8e-7	24	7.e-3
GW	36	1	0.1443377	1.8e-7	24	-0.0721688	-0.125	24	7.e-3
GW	37	27	-2	-3.4641016	0	-0.0721688	-0.125	4	2.e-3
GW	38	27	-2	3.4641016	0	-0.0721687	0.1250002	4	2.e-3
GW	39	27	4.0000003	-1.8e-7	0	0.1443377	1.8e-7	4	2.e-3
GW	40	43	-2	-3.4641016	0	-0.0721688	-0.125	8	2.e-3
GW	41	43	-2	3.4641016	0	-0.0721687	0.1250002	8	2.e-3
GW	42	43	4.0000003	-1.8e-7	0	0.1443377	1.8e-7	8	2.e-3
GW	43	61	-2	-3.4641016	0	-0.0721688	-0.125	12	2.e-3
GW	44	61	-2	3.4641016	0	-0.0721687	0.1250002	12	2.e-3
GW	45	61	4.0000003	-1.8e-7	0	0.1443377	1.8e-7	12	2.e-3
GW	46	79	-2	-3.4641016	0	-0.0721688	-0.125	16	2.e-3
GW	47	79	-2	3.4641016	0	-0.0721687	0.1250002	16	2.e-3
GW	48	79	4.0000003	-1.8e-7	0	0.1443377	1.8e-7	16	2.e-3
GW	49	97	-2.5	-4.330127	0	-0.0721688	-0.125	20	2.e-3
GW	50	97	-2.5	4.330127	0	-0.0721687	0.1250002	20	2.e-3
GW	51	97	5	0	0	0.1443377	1.8e-7	20	2.e-3
GW	52	117	-2.5	-4.330127	0	-0.0721688	-0.125	24	2.e-3
GW	53	117	-2.5	4.330127	0	-0.0721687	0.1250002	24	2.e-3
GW	54	117	5	0	0	0.1443377	1.8e-7	24	2.e-3
GW	55	5	-0.0721688	-0.125	24	-0.0721688	-0.125	25	7.e-3
GW	56	5	-0.0721687	0.1250002	24	-0.0721687	0.1250002	25	7.e-3
GW	57	5	0.1443377	1.8e-7	24	0.1443377	1.8e-7	25	7.e-3
GW	58	1	-0.0721688	-0.125	25	-0.0721687	0.1250002	25	7.e-3
GW	59	1	-0.0721687	0.1250002	25	0.1443377	1.8e-7	25	7.e-3
GW	60	1	0.1443377	1.8e-7	25	-0.0721688	-0.125	25	7.e-3
GW	61	1	-0.0721688	-0.125	25	0	0	25	7.e-3
GW	62	1	-0.0721687	0.1250002	25	0	0	25	7.e-3
GW	63	1	0.1443377	1.8e-7	25	0	0	25	7.e-3
GW	64	3	0	0	25	0	0	25.5	0.025
GW	65	3	0	0	25.5	0	0	26	0.025
GW	66	9	0	0	25.5	-1	-1.7320508	25.5	0.025
GW	67	9	0	0	25.5	1	1.7320508	25.5	0.025
GW	68	15	-1	-1.7320508	25.5	-3.5980762	-0.2320508	25.5	0.025
GW	69	9	-1	-1.7320508	25.5	0.7320508	-2.7320508	25.5	0.025
GW	70	15	1	1.7320508	25.5	-1.5980762	3.2320508	25.5	0.025
GW	71	9	1	1.7320508	25.5	2.7320508	0.7320508	25.5	0.025
GW	72	1	d	W/2	A	d	-W/2	A	0.001
GW	73	1	d	W/2	A-H	d	-W/2	A-H	0.001
GW	74	1	d	W/2	A	d	W/2	A-H	0.001
GW	75	1	d	-W/2	A	d	-W/2	A-H	0.001
GE	1
GN	2	0	0	0	13	0.005
EK
EX	0	72	1	0	1	0	0
FR	0	0	0	0	7.1	0
EN
