CM 
CE
SY freq=21.1
SY H=17
SY lambda=300/freq
SY corr=1.012
SY S=corr*lambda/4
SY theta=28.01032
SY SMA=S*cos(theta)
SY SMiA=S*sin(theta)
SY sp=1
GW	1	11	-0.125	0.07216878	-1.e-8	-0.125	0.07216878	4	7.e-3
GW	2	11	0.1250002	0.07216869	0	0.1250002	0.07216869	4	7.e-3
GW	3	11	1.8e-7	-0.1443377	0	1.8e-7	-0.1443377	4	7.e-3
GW	4	1	-0.125	0.07216878	4	0.1250002	0.07216869	4	7.e-3
GW	5	1	0.1250002	0.07216869	4	1.8e-7	-0.1443377	4	7.e-3
GW	6	1	1.8e-7	-0.1443377	4	-0.125	0.07216878	4	7.e-3
GW	7	11	-0.125	0.07216878	4	-0.125	0.07216878	8	7.e-3
GW	8	11	0.1250002	0.07216869	4	0.1250002	0.07216869	8	7.e-3
GW	9	11	1.8e-7	-0.1443377	4	1.8e-7	-0.1443377	8	7.e-3
GW	10	1	-0.125	0.07216878	8	0.1250002	0.07216869	8	7.e-3
GW	11	1	0.1250002	0.07216869	8	1.8e-7	-0.1443377	8	7.e-3
GW	12	1	1.8e-7	-0.1443377	8	-0.125	0.07216878	8	7.e-3
GW	13	11	-0.125	0.07216878	8	-0.125	0.07216878	12	7.e-3
GW	14	11	0.1250002	0.07216869	8	0.1250002	0.07216869	12	7.e-3
GW	15	11	1.8e-7	-0.1443377	8	1.8e-7	-0.1443377	12	7.e-3
GW	16	1	-0.125	0.07216878	12	0.1250002	0.07216869	12	7.e-3
GW	17	1	0.1250002	0.07216869	12	1.8e-7	-0.1443377	12	7.e-3
GW	18	1	1.8e-7	-0.1443377	12	-0.125	0.07216878	12	7.e-3
GW	19	11	-0.125	0.07216878	12	-0.125	0.07216878	16	7.e-3
GW	20	11	0.1250002	0.07216869	12	0.1250002	0.07216869	16	7.e-3
GW	21	11	1.8e-7	-0.1443377	12	1.8e-7	-0.1443377	16	7.e-3
GW	22	1	-0.125	0.07216878	16	0.1250002	0.07216869	16	7.e-3
GW	23	1	0.1250002	0.07216869	16	1.8e-7	-0.1443377	16	7.e-3
GW	24	1	1.8e-7	-0.1443377	16	-0.125	0.07216878	16	7.e-3
GW	25	11	-0.125	0.07216878	16	-0.125	0.07216878	20	7.e-3
GW	26	11	0.1250002	0.07216869	16	0.1250002	0.07216869	20	7.e-3
GW	27	11	1.8e-7	-0.1443377	16	1.8e-7	-0.1443377	20	7.e-3
GW	28	1	-0.125	0.07216878	20	0.1250002	0.07216869	20	7.e-3
GW	29	1	0.1250002	0.07216869	20	1.8e-7	-0.1443377	20	7.e-3
GW	30	1	1.8e-7	-0.1443377	20	-0.125	0.07216878	20	7.e-3
GW	31	11	-0.125	0.07216878	20	-0.125	0.07216878	24	7.e-3
GW	32	11	0.1250002	0.07216869	20	0.1250002	0.07216869	24	7.e-3
GW	33	11	1.8e-7	-0.1443377	20	1.8e-7	-0.1443377	24	7.e-3
GW	34	1	-0.125	0.07216878	24	0.1250002	0.07216869	24	7.e-3
GW	35	1	0.1250002	0.07216869	24	1.8e-7	-0.1443377	24	7.e-3
GW	36	1	1.8e-7	-0.1443377	24	-0.125	0.07216878	24	7.e-3
GW	37	17	-3.4641016	1.99999999	0	-0.125	0.07216878	4	2.e-3
GW	38	17	3.46410162	2	0	0.1250002	0.07216869	4	2.e-3
GW	39	17	-1.8e-7	-4.0000003	-1.e-8	1.8e-7	-0.1443377	4	2.e-3
GW	40	25	-3.4641016	1.99999999	0	-0.125	0.07216878	8	2.e-3
GW	41	25	3.46410162	2	0	0.1250002	0.07216869	8	2.e-3
GW	42	25	-1.8e-7	-4.0000003	-1.e-8	1.8e-7	-0.1443377	8	2.e-3
GW	43	35	-3.4641016	1.99999999	0	-0.125	0.07216878	12	2.e-3
GW	44	35	3.46410162	2	0	0.1250002	0.07216869	12	2.e-3
GW	45	35	-1.8e-7	-4.0000003	-1.e-8	1.8e-7	-0.1443377	12	2.e-3
GW	46	47	-3.4641016	1.99999999	0	-0.125	0.07216878	16	2.e-3
GW	47	47	3.46410162	2	0	0.1250002	0.07216869	16	2.e-3
GW	48	47	-1.8e-7	-4.0000003	-1.e-8	1.8e-7	-0.1443377	16	2.e-3
GW	49	59	-4.330127	2.49999998	0	-0.125	0.07216878	20	2.e-3
GW	50	59	4.33012702	2.5	0	0.1250002	0.07216869	20	2.e-3
GW	51	59	0	-5	0	1.8e-7	-0.1443377	20	2.e-3
GW	52	69	-4.330127	2.49999998	0	-0.125	0.07216878	24	2.e-3
GW	53	69	4.33012702	2.5	0	0.1250002	0.07216869	24	2.e-3
GW	54	69	0	-5	0	1.8e-7	-0.1443377	24	2.e-3
GW	55	3	-0.125	0.07216878	24	-0.125	0.07216878	25	7.e-3
GW	56	3	0.1250002	0.07216869	24	0.1250002	0.07216869	25	7.e-3
GW	57	3	1.8e-7	-0.1443377	24	1.8e-7	-0.1443377	25	7.e-3
GW	58	1	-0.125	0.07216878	25	0.1250002	0.07216869	25	7.e-3
GW	59	1	0.1250002	0.07216869	25	1.8e-7	-0.1443377	25	7.e-3
GW	60	1	1.8e-7	-0.1443377	25	-0.125	0.07216878	25	7.e-3
GW	61	1	-0.125	0.07216878	25	0	0	25	7.e-3
GW	62	1	0.1250002	0.07216869	25	0	0	25	7.e-3
GW	63	1	1.8e-7	-0.1443377	25	0	0	25	7.e-3
GW	64	1	0	0	25	0	0	25.5	0.025
GW	65	1	0	0	25.5	0	0	26	0.025
GW	66	7	0	0	25.5	-1.7320508	0.99999999	25.5	0.025
GW	67	7	0	0	25.5	1.7320508	-1	25.5	0.025
GW	68	9	-1.7320508	0.99999999	25.5	-0.2320508	3.5980762	25.5	0.025
GW	69	7	-1.7320508	0.99999999	25.5	-2.7320508	-0.7320508	25.5	0.025
GW	70	9	1.7320508	-1	25.5	3.23205079	1.59807621	25.5	0.025
GW	71	7	1.7320508	-1	25.5	0.7320508	-2.7320508	25.5	0.025
GW	200	1	0.05	sp	H	-0.05	sp	H	0.001
GW	201	10	0.05	sp	H	SMiA	sp	H+SMA	0.001
GW	202	10	SMiA	sp	H+SMA	0	sp	H+2*SMA	0.001
GW	203	10	-0.05	sp	H	-SMiA	sp	H+SMA	0.001
GW	204	10	-SMiA	sp	H+SMA	0	sp	H+2*SMA	0.001
GW	100	1	-0.8910254	-0.4566987	18	-0.8410254	-0.5433013	18	0.001
GW	101	11	-0.8910254	-0.4566987	18	-1.7106928	0.96300677	21.175796	0.001
GW	102	11	-1.7106928	0.96300677	21.175796	-0.8660254	-0.5	24.351593	0.001
GW	103	11	-0.8410254	-0.5433013	18	-0.0213579	-1.963007	21.175796	0.001
GW	104	11	-0.0213579	-1.963007	21.175796	-0.8660254	-0.5	24.351593	0.001
GE	1
LD	5	0	0	0	58000000
LD	7	100	0	0	4.5	0.002
LD	7	101	0	0	4.5	0.002
LD	7	102	0	0	4.5	0.002
LD	7	103	0	0	4.5	0.002
LD	7	104	0	0	4.5	0.002
LD	7	200	0	0	4.5	0.002
LD	7	201	0	0	4.5	0.002
LD	7	202	0	0	4.5	0.002
LD	7	203	0	0	4.5	0.002
LD	7	204	0	0	4.5	0.002
LD	0	100	1	0	0	5.e-6
GN	2	0	0	0	17	0.015
EK
EX	0	200	1	0	1	0	0
FR	0	0	0	0	freq	0
EN
