CM 
CE
SY r=0.001
SY h=26
SY L=44.2
SY s=L/4
SY g=1.5
GW	1	19	0.14433757	1.e-8	0	0.14433757	1.e-8	4	7.e-3
GW	2	19	-0.072169	-0.125	0	-0.072169	-0.125	4	7.e-3
GW	3	19	-0.072169	0.125	0	-0.072169	0.125	4	7.e-3
GW	4	1	0.14433757	1.e-8	4	-0.072169	-0.125	4	7.e-3
GW	5	1	-0.072169	-0.125	4	-0.072169	0.125	4	7.e-3
GW	6	1	-0.072169	0.125	4	0.14433757	1.e-8	4	7.e-3
GW	7	19	0.14433757	1.e-8	4	0.14433757	1.e-8	8	7.e-3
GW	8	19	-0.072169	-0.125	4	-0.072169	-0.125	8	7.e-3
GW	9	19	-0.072169	0.125	4	-0.072169	0.125	8	7.e-3
GW	10	1	0.14433757	1.e-8	8	-0.072169	-0.125	8	7.e-3
GW	11	1	-0.072169	-0.125	8	-0.072169	0.125	8	7.e-3
GW	12	1	-0.072169	0.125	8	0.14433757	1.e-8	8	7.e-3
GW	13	19	0.14433757	1.e-8	8	0.14433757	1.e-8	12	7.e-3
GW	14	19	-0.072169	-0.125	8	-0.072169	-0.125	12	7.e-3
GW	15	19	-0.072169	0.125	8	-0.072169	0.125	12	7.e-3
GW	16	1	0.14433757	1.e-8	12	-0.072169	-0.125	12	7.e-3
GW	17	1	-0.072169	-0.125	12	-0.072169	0.125	12	7.e-3
GW	18	1	-0.072169	0.125	12	0.14433757	1.e-8	12	7.e-3
GW	19	19	0.14433757	1.e-8	12	0.14433757	1.e-8	16	7.e-3
GW	20	19	-0.072169	-0.125	12	-0.072169	-0.125	16	7.e-3
GW	21	19	-0.072169	0.125	12	-0.072169	0.125	16	7.e-3
GW	22	1	0.14433757	1.e-8	16	-0.072169	-0.125	16	7.e-3
GW	23	1	-0.072169	-0.125	16	-0.072169	0.125	16	7.e-3
GW	24	1	-0.072169	0.125	16	0.14433757	1.e-8	16	7.e-3
GW	25	19	0.14433757	1.e-8	16	0.14433757	1.e-8	20	7.e-3
GW	26	19	-0.072169	-0.125	16	-0.072169	-0.125	20	7.e-3
GW	27	19	-0.072169	0.125	16	-0.072169	0.125	20	7.e-3
GW	28	1	0.14433757	1.e-8	20	-0.072169	-0.125	20	7.e-3
GW	29	1	-0.072169	-0.125	20	-0.072169	0.125	20	7.e-3
GW	30	1	-0.072169	0.125	20	0.14433757	1.e-8	20	7.e-3
GW	31	19	0.14433757	1.e-8	20	0.14433757	1.e-8	24	7.e-3
GW	32	19	-0.072169	-0.125	20	-0.072169	-0.125	24	7.e-3
GW	33	19	-0.072169	0.125	20	-0.072169	0.125	24	7.e-3
GW	34	1	0.14433757	1.e-8	24	-0.072169	-0.125	24	7.e-3
GW	35	1	-0.072169	-0.125	24	-0.072169	0.125	24	7.e-3
GW	36	1	-0.072169	0.125	24	0.14433757	1.e-8	24	7.e-3
GW	37	27	3.99999999	1.e-8	0	0.14433757	1.e-8	4	2.e-3
GW	38	27	-2	-3.4641016	0	-0.072169	-0.125	4	2.e-3
GW	39	27	-2	3.464102	0	-0.072169	0.125	4	2.e-3
GW	40	43	3.99999999	1.e-8	0	0.14433757	1.e-8	8	2.e-3
GW	41	43	-2	-3.4641016	0	-0.072169	-0.125	8	2.e-3
GW	42	43	-2	3.464102	0	-0.072169	0.125	8	2.e-3
GW	43	61	3.99999999	1.e-8	0	0.14433757	1.e-8	12	2.e-3
GW	44	61	-2	-3.4641016	0	-0.072169	-0.125	12	2.e-3
GW	45	61	-2	3.464102	0	-0.072169	0.125	12	2.e-3
GW	46	79	3.99999999	1.e-8	0	0.14433757	1.e-8	16	2.e-3
GW	47	79	-2	-3.4641016	0	-0.072169	-0.125	16	2.e-3
GW	48	79	-2	3.464102	0	-0.072169	0.125	16	2.e-3
GW	49	97	4.99999998	1.e-8	0	0.14433757	1.e-8	20	2.e-3
GW	50	97	-2.5	-4.330127	0	-0.072169	-0.125	20	2.e-3
GW	51	97	-2.5	4.330127	0	-0.072169	0.125	20	2.e-3
GW	52	117	4.99999998	1.e-8	0	0.14433757	1.e-8	24	2.e-3
GW	53	117	-2.5	-4.330127	0	-0.072169	-0.125	24	2.e-3
GW	54	117	-2.5	4.330127	0	-0.072169	0.125	24	2.e-3
GW	55	5	0.14433757	1.e-8	24	0.14433757	1.e-8	25	7.e-3
GW	56	5	-0.072169	-0.125	24	-0.072169	-0.125	25	7.e-3
GW	57	5	-0.072169	0.125	24	-0.072169	0.125	25	7.e-3
GW	58	1	0.14433757	1.e-8	25	-0.072169	-0.125	25	7.e-3
GW	59	1	-0.072169	-0.125	25	-0.072169	0.125	25	7.e-3
GW	60	1	-0.072169	0.125	25	0.14433757	1.e-8	25	7.e-3
GW	61	1	0.14433757	1.e-8	25	0	0	25	7.e-3
GW	62	1	-0.072169	-0.125	25	0	0	25	7.e-3
GW	63	1	-0.072169	0.125	25	0	0	25	7.e-3
GW	64	3	0	0	25	0	0	25.5	0.025
GW	65	5	0	0	25.5	0	0	26.5	0.025
GW	66	9	0	0	25.5	0	2	25.5	0.025
GW	67	9	0	0	25.5	0	-2	25.5	0.025
GW	68	15	0	2	25.5	3	2	25.5	0.025
GW	69	9	0	2	25.5	-2	2	25.5	0.025
GW	70	15	0	-2	25.5	3	-2	25.5	0.025
GW	71	9	0	-2	25.5	-2	-2	25.5	0.025
GW	72	1	g	s/2	h-(s/2)	g	-s/2	h-(s/2)	r
GW	73	1	g	s/2	h-(s/2)	g	s/2	h+(s/2)	r
GW	74	1	g	s/2	h+(s/2)	g	-s/2	h+(s/2)	r
GW	75	1	g	-s/2	h-(s/2)	g	-s/2	h+(s/2)	r
GE	1
LD	5	1	0	0	1390000
LD	5	2	0	0	1390000
LD	5	3	0	0	1390000
LD	5	4	0	0	1390000
LD	5	5	0	0	1390000
LD	5	6	0	0	1390000
LD	5	7	0	0	1390000
LD	5	8	0	0	1390000
LD	5	9	0	0	1390000
LD	5	10	0	0	1390000
LD	5	11	0	0	1390000
LD	5	12	0	0	1390000
LD	5	13	0	0	1390000
LD	5	14	0	0	1390000
LD	5	15	0	0	1390000
LD	5	16	0	0	1390000
LD	5	17	0	0	1390000
LD	5	18	0	0	1390000
LD	5	19	0	0	1390000
LD	5	20	0	0	1390000
LD	5	21	0	0	1390000
LD	5	22	0	0	1390000
LD	5	23	0	0	1390000
LD	5	24	0	0	1390000
LD	5	25	0	0	1390000
LD	5	26	0	0	1390000
LD	5	27	0	0	1390000
LD	5	28	0	0	1390000
LD	5	29	0	0	1390000
LD	5	30	0	0	1390000
LD	5	31	0	0	1390000
LD	5	32	0	0	1390000
LD	5	33	0	0	1390000
LD	5	34	0	0	1390000
LD	5	35	0	0	1390000
LD	5	36	0	0	1390000
LD	5	37	0	0	1390000
LD	5	38	0	0	1390000
LD	5	39	0	0	1390000
LD	5	40	0	0	1390000
LD	5	41	0	0	1390000
LD	5	42	0	0	1390000
LD	5	43	0	0	1390000
LD	5	44	0	0	1390000
LD	5	45	0	0	1390000
LD	5	46	0	0	1390000
LD	5	47	0	0	1390000
LD	5	48	0	0	1390000
LD	5	49	0	0	1390000
LD	5	50	0	0	1390000
LD	5	51	0	0	1390000
LD	5	52	0	0	1390000
LD	5	53	0	0	1390000
LD	5	54	0	0	1390000
LD	5	55	0	0	1390000
LD	5	56	0	0	1390000
LD	5	57	0	0	1390000
LD	5	58	0	0	1390000
LD	5	59	0	0	1390000
LD	5	60	0	0	1390000
LD	5	61	0	0	1390000
LD	5	62	0	0	1390000
LD	5	63	0	0	1390000
LD	5	64	0	0	1390000
LD	5	65	0	0	1390000
LD	5	66	0	0	1390000
LD	5	67	0	0	1390000
LD	5	68	0	0	37700000
LD	5	69	0	0	37700000
LD	5	70	0	0	37700000
LD	5	71	0	0	37700000
LD	5	72	0	0	58000000
LD	5	73	0	0	58000000
LD	5	74	0	0	58000000
LD	5	75	0	0	58000000
GN	2	0	0	0	17	0.015
EK
EX	0	72	1	0	1	0	0
FR	0	0	0	0	7.1	0
EN
