CM 
CE
SY freq=7.1
SY H=23.8
SY lambda=300/freq
SY corr=1.01
SY S=corr*lambda/4
SY offset=0.02
GW	1	5	0.07216878	-0.125	0	0.07216878	-0.125	4	7.e-3
GW	2	5	-0.1443377	1.7e-7	0	-0.1443377	1.7e-7	4	7.e-3
GW	3	5	0.07216868	0.12500019	0	0.07216868	0.12500019	4	7.e-3
GW	4	1	0.07216878	-0.125	4	-0.1443377	1.7e-7	4	7.e-3
GW	5	1	-0.1443377	1.7e-7	4	0.07216868	0.12500019	4	7.e-3
GW	6	1	0.07216868	0.12500019	4	0.07216878	-0.125	4	7.e-3
GW	7	5	0.07216878	-0.125	4	0.07216878	-0.125	8	7.e-3
GW	8	5	-0.1443377	1.7e-7	4	-0.1443377	1.7e-7	8	7.e-3
GW	9	5	0.07216868	0.12500019	4	0.07216868	0.12500019	8	7.e-3
GW	10	1	0.07216878	-0.125	8	-0.1443377	1.7e-7	8	7.e-3
GW	11	1	-0.1443377	1.7e-7	8	0.07216868	0.12500019	8	7.e-3
GW	12	1	0.07216868	0.12500019	8	0.07216878	-0.125	8	7.e-3
GW	13	5	0.07216878	-0.125	8	0.07216878	-0.125	12	7.e-3
GW	14	5	-0.1443377	1.7e-7	8	-0.1443377	1.7e-7	12	7.e-3
GW	15	5	0.07216868	0.12500019	8	0.07216868	0.12500019	12	7.e-3
GW	16	1	0.07216878	-0.125	12	-0.1443377	1.7e-7	12	7.e-3
GW	17	1	-0.1443377	1.7e-7	12	0.07216868	0.12500019	12	7.e-3
GW	18	1	0.07216868	0.12500019	12	0.07216878	-0.125	12	7.e-3
GW	19	5	0.07216878	-0.125	12	0.07216878	-0.125	16	7.e-3
GW	20	5	-0.1443377	1.7e-7	12	-0.1443377	1.7e-7	16	7.e-3
GW	21	5	0.07216868	0.12500019	12	0.07216868	0.12500019	16	7.e-3
GW	22	1	0.07216878	-0.125	16	-0.1443377	1.7e-7	16	7.e-3
GW	23	1	-0.1443377	1.7e-7	16	0.07216868	0.12500019	16	7.e-3
GW	24	1	0.07216868	0.12500019	16	0.07216878	-0.125	16	7.e-3
GW	25	5	0.07216878	-0.125	16	0.07216878	-0.125	20	7.e-3
GW	26	5	-0.1443377	1.7e-7	16	-0.1443377	1.7e-7	20	7.e-3
GW	27	5	0.07216868	0.12500019	16	0.07216868	0.12500019	20	7.e-3
GW	28	1	0.07216878	-0.125	20	-0.1443377	1.7e-7	20	7.e-3
GW	29	1	-0.1443377	1.7e-7	20	0.07216868	0.12500019	20	7.e-3
GW	30	1	0.07216868	0.12500019	20	0.07216878	-0.125	20	7.e-3
GW	31	5	0.07216878	-0.125	20	0.07216878	-0.125	24	7.e-3
GW	32	5	-0.1443377	1.7e-7	20	-0.1443377	1.7e-7	24	7.e-3
GW	33	5	0.07216868	0.12500019	20	0.07216868	0.12500019	24	7.e-3
GW	34	1	0.07216878	-0.125	24	-0.1443377	1.7e-7	24	7.e-3
GW	35	1	-0.1443377	1.7e-7	24	0.07216868	0.12500019	24	7.e-3
GW	36	1	0.07216868	0.12500019	24	0.07216878	-0.125	24	7.e-3
GW	37	7	1.99999999	-3.4641016	0	0.07216878	-0.125	4	2.e-3
GW	38	7	-4	0	0	-0.1443377	1.7e-7	4	2.e-3
GW	39	7	2.00000033	3.46410181	0	0.07216868	0.12500019	4	2.e-3
GW	40	11	1.99999999	-3.4641016	0	0.07216878	-0.125	8	2.e-3
GW	41	11	-4	0	0	-0.1443377	1.7e-7	8	2.e-3
GW	42	11	2.00000033	3.46410181	0	0.07216868	0.12500019	8	2.e-3
GW	43	15	1.99999999	-3.4641016	0	0.07216878	-0.125	12	2.e-3
GW	44	15	-4	0	0	-0.1443377	1.7e-7	12	2.e-3
GW	45	15	2.00000033	3.46410181	0	0.07216868	0.12500019	12	2.e-3
GW	46	19	1.99999999	-3.4641016	0	0.07216878	-0.125	16	2.e-3
GW	47	19	-4	0	0	-0.1443377	1.7e-7	16	2.e-3
GW	48	19	2.00000033	3.46410181	0	0.07216868	0.12500019	16	2.e-3
GW	49	25	2.49999998	-4.330127	0	0.07216878	-0.125	20	2.e-3
GW	50	25	-5	0	0	-0.1443377	1.7e-7	20	2.e-3
GW	51	25	2.49999998	4.33012701	0	0.07216868	0.12500019	20	2.e-3
GW	52	29	2.49999998	-4.330127	0	0.07216878	-0.125	24	2.e-3
GW	53	29	-5	0	0	-0.1443377	1.7e-7	24	2.e-3
GW	54	29	2.49999998	4.33012701	0	0.07216868	0.12500019	24	2.e-3
GW	55	1	0.07216878	-0.125	24	0.07216878	-0.125	25	7.e-3
GW	56	1	-0.1443377	1.7e-7	24	-0.1443377	1.7e-7	25	7.e-3
GW	57	1	0.07216868	0.12500019	24	0.07216868	0.12500019	25	7.e-3
GW	58	1	0.07216878	-0.125	25	-0.1443377	1.7e-7	25	7.e-3
GW	59	1	-0.1443377	1.7e-7	25	0.07216868	0.12500019	25	7.e-3
GW	60	1	0.07216868	0.12500019	25	0.07216878	-0.125	25	7.e-3
GW	61	1	0.07216878	-0.125	25	0	0	25	7.e-3
GW	62	1	-0.1443377	1.7e-7	25	0	0	25	7.e-3
GW	63	1	0.07216868	0.12500019	25	0	0	25	7.e-3
GW	64	1	0	0	25	0	0	25.5	0.025
GW	65	1	0	0	25.5	0	0	29	0.025
GW	66	3	0	0	25.5	1.99999999	0	25.5	0.025
GW	67	3	0	0	25.5	-2	0	25.5	0.025
GW	68	5	1.99999999	0	25.5	2	-3	25.5	0.025
GW	69	3	1.99999999	0	25.5	1.99999999	2	25.5	0.025
GW	70	5	-2	0	25.5	-2	-3	25.5	0.025
GW	71	3	-2	0	25.5	-2	2.00000001	25.5	0.025
GW	100	9	offset	-S/2	H-S	offset	S/2	H-S	0.001
GW	101	9	offset	-S/2	H	offset	S/2	H	0.001
GW	102	9	offset	-S/2	H	offset	-S/2	H-S	0.001
GW	103	9	offset	S/2	H	offset	S/2	H-S	0.001
GE	1
LD	5	0	0	0	58000000
LD	7	100	0	0	4.5	0.002
LD	7	101	0	0	4.5	0.002
LD	7	102	0	0	4.5	0.002
LD	7	103	0	0	4.5	0.002
GN	2	0	0	0	17	0.015
EK
EX	0	100	5	0	1	0	0
FR	0	0	0	0	freq	0
EN
