CM 
CE
SY freq=7.1
SY H=24.2
SY lambda=300/freq
SY corr=1.01
SY S=corr*lambda/4
SY theta=46
SY SMA=S*cos(theta)
SY SMiA=S*sin(theta)
SY sp=0.02
GW	1	5	0.125	0.07216879	0	0.125	0.07216879	4	7.e-3
GW	2	5	-1.8e-7	-0.1443377	0	-1.8e-7	-0.1443377	4	7.e-3
GW	3	5	-0.1250002	0.07216869	0	-0.1250002	0.07216869	4	7.e-3
GW	4	5	0.125	0.07216879	4	-1.8e-7	-0.1443377	4	7.e-3
GW	5	5	-1.8e-7	-0.1443377	4	-0.1250002	0.07216869	4	7.e-3
GW	6	5	-0.1250002	0.07216869	4	0.125	0.07216879	4	7.e-3
GW	7	5	0.125	0.07216879	4	0.125	0.07216879	8	7.e-3
GW	8	5	-1.8e-7	-0.1443377	4	-1.8e-7	-0.1443377	8	7.e-3
GW	9	5	-0.1250002	0.07216869	4	-0.1250002	0.07216869	8	7.e-3
GW	10	5	0.125	0.07216879	8	-1.8e-7	-0.1443377	8	7.e-3
GW	11	5	-1.8e-7	-0.1443377	8	-0.1250002	0.07216869	8	7.e-3
GW	12	5	-0.1250002	0.07216869	8	0.125	0.07216879	8	7.e-3
GW	13	5	0.125	0.07216879	8	0.125	0.07216879	12	7.e-3
GW	14	5	-1.8e-7	-0.1443377	8	-1.8e-7	-0.1443377	12	7.e-3
GW	15	5	-0.1250002	0.07216869	8	-0.1250002	0.07216869	12	7.e-3
GW	16	5	0.125	0.07216879	12	-1.8e-7	-0.1443377	12	7.e-3
GW	17	5	-1.8e-7	-0.1443377	12	-0.1250002	0.07216869	12	7.e-3
GW	18	5	-0.1250002	0.07216869	12	0.125	0.07216879	12	7.e-3
GW	19	5	0.125	0.07216879	12	0.125	0.07216879	16	7.e-3
GW	20	5	-1.8e-7	-0.1443377	12	-1.8e-7	-0.1443377	16	7.e-3
GW	21	5	-0.1250002	0.07216869	12	-0.1250002	0.07216869	16	7.e-3
GW	22	5	0.125	0.07216879	16	-1.8e-7	-0.1443377	16	7.e-3
GW	23	5	-1.8e-7	-0.1443377	16	-0.1250002	0.07216869	16	7.e-3
GW	24	5	-0.1250002	0.07216869	16	0.125	0.07216879	16	7.e-3
GW	25	5	0.125	0.07216879	16	0.125	0.07216879	20	7.e-3
GW	26	5	-1.8e-7	-0.1443377	16	-1.8e-7	-0.1443377	20	7.e-3
GW	27	5	-0.1250002	0.07216869	16	-0.1250002	0.07216869	20	7.e-3
GW	28	5	0.125	0.07216879	20	-1.8e-7	-0.1443377	20	7.e-3
GW	29	5	-1.8e-7	-0.1443377	20	-0.1250002	0.07216869	20	7.e-3
GW	30	5	-0.1250002	0.07216869	20	0.125	0.07216879	20	7.e-3
GW	31	5	0.125	0.07216879	20	0.125	0.07216879	24	7.e-3
GW	32	5	-1.8e-7	-0.1443377	20	-1.8e-7	-0.1443377	24	7.e-3
GW	33	5	-0.1250002	0.07216869	20	-0.1250002	0.07216869	24	7.e-3
GW	34	5	0.125	0.07216879	24	-1.8e-7	-0.1443377	24	7.e-3
GW	35	5	-1.8e-7	-0.1443377	24	-0.1250002	0.07216869	24	7.e-3
GW	36	5	-0.1250002	0.07216869	24	0.125	0.07216879	24	7.e-3
GW	37	5	3.4641016	2	0	0.125	0.07216879	4	2.e-3
GW	38	5	0	-4	0	-1.8e-7	-0.1443377	4	2.e-3
GW	39	5	-3.4641018	2.00000031	0	-0.1250002	0.07216869	4	2.e-3
GW	40	5	3.4641016	2	0	0.125	0.07216879	8	2.e-3
GW	41	5	0	-4	0	-1.8e-7	-0.1443377	8	2.e-3
GW	42	5	-3.4641018	2.00000031	0	-0.1250002	0.07216869	8	2.e-3
GW	43	5	3.4641016	2	0	0.125	0.07216879	12	2.e-3
GW	44	5	0	-4	0	-1.8e-7	-0.1443377	12	2.e-3
GW	45	5	-3.4641018	2.00000031	0	-0.1250002	0.07216869	12	2.e-3
GW	46	5	3.4641016	2	0	0.125	0.07216879	16	2.e-3
GW	47	5	0	-4	0	-1.8e-7	-0.1443377	16	2.e-3
GW	48	5	-3.4641018	2.00000031	0	-0.1250002	0.07216869	16	2.e-3
GW	49	5	4.330127	2.5	0	0.125	0.07216879	20	2.e-3
GW	50	5	0	-5	0	-1.8e-7	-0.1443377	20	2.e-3
GW	51	5	-4.330127	2.49999999	0	-0.1250002	0.07216869	20	2.e-3
GW	52	5	4.330127	2.5	0	0.125	0.07216879	24	2.e-3
GW	53	5	0	-5	0	-1.8e-7	-0.1443377	24	2.e-3
GW	54	5	-4.330127	2.49999999	0	-0.1250002	0.07216869	24	2.e-3
GW	55	5	0.125	0.07216879	24	0.125	0.07216879	25	7.e-3
GW	56	5	-1.8e-7	-0.1443377	24	-1.8e-7	-0.1443377	25	7.e-3
GW	57	5	-0.1250002	0.07216869	24	-0.1250002	0.07216869	25	7.e-3
GW	58	5	0.125	0.07216879	25	-1.8e-7	-0.1443377	25	7.e-3
GW	59	5	-1.8e-7	-0.1443377	25	-0.1250002	0.07216869	25	7.e-3
GW	60	5	-0.1250002	0.07216869	25	0.125	0.07216879	25	7.e-3
GW	61	5	0.125	0.07216879	25	0	0	25	7.e-3
GW	62	5	-1.8e-7	-0.1443377	25	0	0	25	7.e-3
GW	63	5	-0.1250002	0.07216869	25	0	0	25	7.e-3
GW	64	5	0	0	25	0	0	25.5	0.025
GW	65	5	0	0	25.5	0	0	26	0.025
GW	66	5	0	0	25.5	1.7320508	1	25.5	0.025
GW	67	5	0	0	25.5	-1.7320508	-1	25.5	0.025
GW	68	5	1.7320508	1	25.5	3.2320508	-1.5980762	25.5	0.025
GW	69	5	1.7320508	1	25.5	0.73205082	2.73205081	25.5	0.025
GW	70	5	-1.7320508	-1	25.5	-0.2320508	-3.5980762	25.5	0.025
GW	71	5	-1.7320508	-1	25.5	-2.7320508	0.73205081	25.5	0.025
GW	100	29	S/2	sp	H-S	-S/2	sp	H-S	0.001
GW	101	29	S/2	sp	H	-S/2	sp	H	0.001
GW	102	29	S/2	sp	H-S	S/2	sp	H	0.001
GW	103	29	-S/2	sp	H-S	-S/2	sp	H	0.001
GE	1
LD	5	0	0	0	58000000
LD	7	100	0	0	4.5	0.002
LD	7	101	0	0	4.5	0.002
LD	7	102	0	0	4.5	0.002
LD	7	103	0	0	4.5	0.002
GN	2	0	0	0	17	0.015
EK
EX	0	100	15	0	1	0	0
FR	0	0	0	0	freq	0
EN
