CM 
CE
SY gap=0.2	'jarak dari tower
SY s=10.63	'sisi quad loop
SY alt=23-(s/2)	'ketingiian pemasangan antenna
SY alt2=22-(s/2)
GW	1	9	0.0721688	-0.125	0	0.0721688	-0.125	4	7.e-3
GW	2	9	-0.1443377	1.9e-7	0	-0.1443377	1.9e-7	4	7.e-3
GW	3	9	0.07216868	0.12500019	0	0.07216868	0.12500019	4	7.e-3
GW	4	1	0.0721688	-0.125	4	-0.1443377	1.9e-7	4	7.e-3
GW	5	1	-0.1443377	1.9e-7	4	0.07216868	0.12500019	4	7.e-3
GW	6	1	0.07216868	0.12500019	4	0.0721688	-0.125	4	7.e-3
GW	7	9	0.0721688	-0.125	4	0.0721688	-0.125	8	7.e-3
GW	8	9	-0.1443377	1.9e-7	4	-0.1443377	1.9e-7	8	7.e-3
GW	9	9	0.07216868	0.12500019	4	0.07216868	0.12500019	8	7.e-3
GW	10	1	0.0721688	-0.125	8	-0.1443377	1.9e-7	8	7.e-3
GW	11	1	-0.1443377	1.9e-7	8	0.07216868	0.12500019	8	7.e-3
GW	12	1	0.07216868	0.12500019	8	0.0721688	-0.125	8	7.e-3
GW	13	9	0.0721688	-0.125	8	0.0721688	-0.125	12	7.e-3
GW	14	9	-0.1443377	1.9e-7	8	-0.1443377	1.9e-7	12	7.e-3
GW	15	9	0.07216868	0.12500019	8	0.07216868	0.12500019	12	7.e-3
GW	16	1	0.0721688	-0.125	12	-0.1443377	1.9e-7	12	7.e-3
GW	17	1	-0.1443377	1.9e-7	12	0.07216868	0.12500019	12	7.e-3
GW	18	1	0.07216868	0.12500019	12	0.0721688	-0.125	12	7.e-3
GW	19	9	0.0721688	-0.125	12	0.0721688	-0.125	16	7.e-3
GW	20	9	-0.1443377	1.9e-7	12	-0.1443377	1.9e-7	16	7.e-3
GW	21	9	0.07216868	0.12500019	12	0.07216868	0.12500019	16	7.e-3
GW	22	1	0.0721688	-0.125	16	-0.1443377	1.9e-7	16	7.e-3
GW	23	1	-0.1443377	1.9e-7	16	0.07216868	0.12500019	16	7.e-3
GW	24	1	0.07216868	0.12500019	16	0.0721688	-0.125	16	7.e-3
GW	25	9	0.0721688	-0.125	16	0.0721688	-0.125	20	7.e-3
GW	26	9	-0.1443377	1.9e-7	16	-0.1443377	1.9e-7	20	7.e-3
GW	27	9	0.07216868	0.12500019	16	0.07216868	0.12500019	20	7.e-3
GW	28	1	0.0721688	-0.125	20	-0.1443377	1.9e-7	20	7.e-3
GW	29	1	-0.1443377	1.9e-7	20	0.07216868	0.12500019	20	7.e-3
GW	30	1	0.07216868	0.12500019	20	0.0721688	-0.125	20	7.e-3
GW	31	9	0.0721688	-0.125	20	0.0721688	-0.125	24	7.e-3
GW	32	9	-0.1443377	1.9e-7	20	-0.1443377	1.9e-7	24	7.e-3
GW	33	9	0.07216868	0.12500019	20	0.07216868	0.12500019	24	7.e-3
GW	34	1	0.0721688	-0.125	24	-0.1443377	1.9e-7	24	7.e-3
GW	35	1	-0.1443377	1.9e-7	24	0.07216868	0.12500019	24	7.e-3
GW	36	1	0.07216868	0.12500019	24	0.0721688	-0.125	24	7.e-3
GW	37	13	2	-3.4641016	0	0.0721688	-0.125	4	2.e-3
GW	38	13	-4	1.e-8	0	-0.1443377	1.9e-7	4	2.e-3
GW	39	13	2.00000033	3.46410181	0	0.07216868	0.12500019	4	2.e-3
GW	40	21	2	-3.4641016	0	0.0721688	-0.125	8	2.e-3
GW	41	21	-4	1.e-8	0	-0.1443377	1.9e-7	8	2.e-3
GW	42	21	2.00000033	3.46410181	0	0.07216868	0.12500019	8	2.e-3
GW	43	31	2	-3.4641016	0	0.0721688	-0.125	12	2.e-3
GW	44	31	-4	1.e-8	0	-0.1443377	1.9e-7	12	2.e-3
GW	45	31	2.00000033	3.46410181	0	0.07216868	0.12500019	12	2.e-3
GW	46	39	2	-3.4641016	0	0.0721688	-0.125	16	2.e-3
GW	47	39	-4	1.e-8	0	-0.1443377	1.9e-7	16	2.e-3
GW	48	39	2.00000033	3.46410181	0	0.07216868	0.12500019	16	2.e-3
GW	49	49	2.5	-4.330127	0	0.0721688	-0.125	20	2.e-3
GW	50	49	-5	1.e-8	0	-0.1443377	1.9e-7	20	2.e-3
GW	51	49	2.49999998	4.33012701	0	0.07216868	0.12500019	20	2.e-3
GW	52	59	2.5	-4.330127	0	0.0721688	-0.125	24	2.e-3
GW	53	59	-5	1.e-8	0	-0.1443377	1.9e-7	24	2.e-3
GW	54	59	2.49999998	4.33012701	0	0.07216868	0.12500019	24	2.e-3
GW	55	3	0.0721688	-0.125	24	0.0721688	-0.125	25	7.e-3
GW	56	3	-0.1443377	1.9e-7	24	-0.1443377	1.9e-7	25	7.e-3
GW	57	3	0.07216868	0.12500019	24	0.07216868	0.12500019	25	7.e-3
GW	58	1	0.0721688	-0.125	25	-0.1443377	1.9e-7	25	7.e-3
GW	59	1	-0.1443377	1.9e-7	25	0.07216868	0.12500019	25	7.e-3
GW	60	1	0.07216868	0.12500019	25	0.0721688	-0.125	25	7.e-3
GW	61	1	0.0721688	-0.125	25	0	0	25	7.e-3
GW	62	1	-0.1443377	1.9e-7	25	0	0	25	7.e-3
GW	63	1	0.07216868	0.12500019	25	0	0	25	7.e-3
GW	64	1	0	0	25	0	0	25.5	0.025
GW	65	1	0	0	25.5	0	0	26	0.025
GW	66	5	0	0	25.5	1	-1.7320508	25.5	0.025
GW	67	5	0	0	25.5	-1	1.73205081	25.5	0.025
GW	68	7	1	-1.7320508	25.5	-1.5980762	-3.2320508	25.5	0.025
GW	69	5	1	-1.7320508	25.5	2.73205081	-0.7320508	25.5	0.025
GW	70	7	-1	1.73205081	25.5	-3.5980762	0.23205081	25.5	0.025
GW	71	5	-1	1.73205081	25.5	0.73205081	2.73205081	25.5	0.025
GW	72	1	gap	s/2	alt-(s/2)	gap	-s/2	alt-(s/2)	0.001
GW	73	1	gap	s/2	alt+(s/2)	gap	-s/2	alt+(s/2)	0.001
GW	74	1	gap	s/2	alt+(s/2)	gap	s/2	alt-(s/2)	0.001
GW	75	1	gap	-s/2	alt+(s/2)	gap	-s/2	alt-(s/2)	0.001
GW	76	1	s/2	-gap	alt2-(s/2)	-s/2	-gap	alt2-(s/2)	0.001
GW	77	1	s/2	-gap	alt2+(s/2)	-s/2	-gap	alt2+(s/2)	0.001
GW	78	1	s/2	-gap	alt2+(s/2)	s/2	-gap	alt2-(s/2)	0.001
GW	79	1	-s/2	-gap	alt2+(s/2)	-s/2	-gap	alt2-(s/2)	0.001
GE	1
LD	5	72	0	0	58000000
LD	5	73	0	0	58000000
LD	5	74	0	0	58000000
LD	5	75	0	0	58000000
LD	5	76	0	0	58000000
LD	5	77	0	0	58000000
LD	5	78	0	0	58000000
LD	5	79	0	0	58000000
LD	7	72	0	0	4.5	0.002
LD	7	73	0	0	4.5	0.002
LD	7	74	0	0	4.5	0.002
LD	7	75	0	0	4.5	0.002
LD	7	76	0	0	4.5	0.002
LD	7	77	0	0	4.5	0.002
LD	7	78	0	0	4.5	0.002
LD	7	79	0	0	4.5	0.002
GN	2	0	0	0	13	0.005
EK
EX	0	72	1	0	1	0	0
FR	0	0	0	0	7.1	0
EN
