CM 
CE
SY gap=0.2
SY s=10.67
SY alt=22-(s/2)
SY alt2=23-(s/2)
GW	1	9	0.125	0.0721688	0	0.125	0.0721688	4	7.e-3
GW	2	9	-1.9e-7	-0.1443377	0	-1.9e-7	-0.1443377	4	7.e-3
GW	3	9	-0.1250002	0.07216868	0	-0.1250002	0.07216868	4	7.e-3
GW	4	1	0.125	0.0721688	4	-1.9e-7	-0.1443377	4	7.e-3
GW	5	1	-1.9e-7	-0.1443377	4	-0.1250002	0.07216868	4	7.e-3
GW	6	1	-0.1250002	0.07216868	4	0.125	0.0721688	4	7.e-3
GW	7	9	0.125	0.0721688	4	0.125	0.0721688	8	7.e-3
GW	8	9	-1.9e-7	-0.1443377	4	-1.9e-7	-0.1443377	8	7.e-3
GW	9	9	-0.1250002	0.07216868	4	-0.1250002	0.07216868	8	7.e-3
GW	10	1	0.125	0.0721688	8	-1.9e-7	-0.1443377	8	7.e-3
GW	11	1	-1.9e-7	-0.1443377	8	-0.1250002	0.07216868	8	7.e-3
GW	12	1	-0.1250002	0.07216868	8	0.125	0.0721688	8	7.e-3
GW	13	9	0.125	0.0721688	8	0.125	0.0721688	12	7.e-3
GW	14	9	-1.9e-7	-0.1443377	8	-1.9e-7	-0.1443377	12	7.e-3
GW	15	9	-0.1250002	0.07216868	8	-0.1250002	0.07216868	12	7.e-3
GW	16	1	0.125	0.0721688	12	-1.9e-7	-0.1443377	12	7.e-3
GW	17	1	-1.9e-7	-0.1443377	12	-0.1250002	0.07216868	12	7.e-3
GW	18	1	-0.1250002	0.07216868	12	0.125	0.0721688	12	7.e-3
GW	19	9	0.125	0.0721688	12	0.125	0.0721688	16	7.e-3
GW	20	9	-1.9e-7	-0.1443377	12	-1.9e-7	-0.1443377	16	7.e-3
GW	21	9	-0.1250002	0.07216868	12	-0.1250002	0.07216868	16	7.e-3
GW	22	1	0.125	0.0721688	16	-1.9e-7	-0.1443377	16	7.e-3
GW	23	1	-1.9e-7	-0.1443377	16	-0.1250002	0.07216868	16	7.e-3
GW	24	1	-0.1250002	0.07216868	16	0.125	0.0721688	16	7.e-3
GW	25	9	0.125	0.0721688	16	0.125	0.0721688	20	7.e-3
GW	26	9	-1.9e-7	-0.1443377	16	-1.9e-7	-0.1443377	20	7.e-3
GW	27	9	-0.1250002	0.07216868	16	-0.1250002	0.07216868	20	7.e-3
GW	28	1	0.125	0.0721688	20	-1.9e-7	-0.1443377	20	7.e-3
GW	29	1	-1.9e-7	-0.1443377	20	-0.1250002	0.07216868	20	7.e-3
GW	30	1	-0.1250002	0.07216868	20	0.125	0.0721688	20	7.e-3
GW	31	9	0.125	0.0721688	20	0.125	0.0721688	24	7.e-3
GW	32	9	-1.9e-7	-0.1443377	20	-1.9e-7	-0.1443377	24	7.e-3
GW	33	9	-0.1250002	0.07216868	20	-0.1250002	0.07216868	24	7.e-3
GW	34	1	0.125	0.0721688	24	-1.9e-7	-0.1443377	24	7.e-3
GW	35	1	-1.9e-7	-0.1443377	24	-0.1250002	0.07216868	24	7.e-3
GW	36	1	-0.1250002	0.07216868	24	0.125	0.0721688	24	7.e-3
GW	37	13	3.4641016	2	0	0.125	0.0721688	4	2.e-3
GW	38	13	-1.e-8	-4	0	-1.9e-7	-0.1443377	4	2.e-3
GW	39	13	-3.4641018	2.00000033	0	-0.1250002	0.07216868	4	2.e-3
GW	40	21	3.4641016	2	0	0.125	0.0721688	8	2.e-3
GW	41	21	-1.e-8	-4	0	-1.9e-7	-0.1443377	8	2.e-3
GW	42	21	-3.4641018	2.00000033	0	-0.1250002	0.07216868	8	2.e-3
GW	43	31	3.4641016	2	0	0.125	0.0721688	12	2.e-3
GW	44	31	-1.e-8	-4	0	-1.9e-7	-0.1443377	12	2.e-3
GW	45	31	-3.4641018	2.00000033	0	-0.1250002	0.07216868	12	2.e-3
GW	46	39	3.4641016	2	0	0.125	0.0721688	16	2.e-3
GW	47	39	-1.e-8	-4	0	-1.9e-7	-0.1443377	16	2.e-3
GW	48	39	-3.4641018	2.00000033	0	-0.1250002	0.07216868	16	2.e-3
GW	49	49	4.330127	2.5	0	0.125	0.0721688	20	2.e-3
GW	50	49	-1.e-8	-5	0	-1.9e-7	-0.1443377	20	2.e-3
GW	51	49	-4.330127	2.49999998	0	-0.1250002	0.07216868	20	2.e-3
GW	52	59	4.330127	2.5	0	0.125	0.0721688	24	2.e-3
GW	53	59	-1.e-8	-5	0	-1.9e-7	-0.1443377	24	2.e-3
GW	54	59	-4.330127	2.49999998	0	-0.1250002	0.07216868	24	2.e-3
GW	55	3	0.125	0.0721688	24	0.125	0.0721688	25	7.e-3
GW	56	3	-1.9e-7	-0.1443377	24	-1.9e-7	-0.1443377	25	7.e-3
GW	57	3	-0.1250002	0.07216868	24	-0.1250002	0.07216868	25	7.e-3
GW	58	1	0.125	0.0721688	25	-1.9e-7	-0.1443377	25	7.e-3
GW	59	1	-1.9e-7	-0.1443377	25	-0.1250002	0.07216868	25	7.e-3
GW	60	1	-0.1250002	0.07216868	25	0.125	0.0721688	25	7.e-3
GW	61	1	0.125	0.0721688	25	0	0	25	7.e-3
GW	62	1	-1.9e-7	-0.1443377	25	0	0	25	7.e-3
GW	63	1	-0.1250002	0.07216868	25	0	0	25	7.e-3
GW	64	1	0	0	25	0	0	25.5	0.025
GW	65	1	0	0	25.5	0	0	26	0.025
GW	66	5	0	0	25.5	1.7320508	1	25.5	0.025
GW	67	5	0	0	25.5	-1.7320508	-1	25.5	0.025
GW	68	7	1.7320508	1	25.5	3.2320508	-1.5980762	25.5	0.025
GW	69	5	1.7320508	1	25.5	0.7320508	2.73205081	25.5	0.025
GW	70	7	-1.7320508	-1	25.5	-0.2320508	-3.5980762	25.5	0.025
GW	71	5	-1.7320508	-1	25.5	-2.7320508	0.73205081	25.5	0.025
GW	72	1	gap	s/2	alt-(s/2)	gap	-s/2	alt-(s/2)	0.001
GW	73	1	gap	s/2	alt+(s/2)	gap	-s/2	alt+(s/2)	0.001
GW	74	1	gap	s/2	alt+(s/2)	gap	s/2	alt-(s/2)	0.001
GW	75	1	gap	-s/2	alt+(s/2)	gap	-s/2	alt-(s/2)	0.001
GW	76	1	s/2	gap	alt2-(s/2)	-s/2	gap	alt2-(s/2)	0.001
GW	77	1	s/2	gap	alt2+(s/2)	-s/2	gap	alt2+(s/2)	0.001
GW	78	1	s/2	gap	alt2-(s/2)	s/2	gap	alt2+(s/2)	0.001
GW	79	1	-s/2	gap	alt2-(s/2)	-s/2	gap	alt2+(s/2)	0.001
GE	1
LD	5	72	0	0	58000000
LD	5	73	0	0	58000000
LD	5	74	0	0	58000000
LD	5	75	0	0	58000000
LD	5	76	0	0	58000000
LD	5	77	0	0	58000000
LD	5	78	0	0	58000000
LD	5	79	0	0	58000000
LD	7	72	0	0	4.5	0.002
LD	7	73	0	0	4.5	0.002
LD	7	74	0	0	4.5	0.002
LD	7	75	0	0	4.5	0.002
LD	7	76	0	0	4.5	0.002
LD	7	77	0	0	4.5	0.002
LD	7	78	0	0	4.5	0.002
LD	7	79	0	0	4.5	0.002
GN	2	0	0	0	13	0.005
EK
EX	0	72	1	0	1	0	0
FR	0	0	0	0	7.1	0
EN
