CM 
CE
SY L=20
SY h=20
SY r=0.0015
GW	1	1	0	-L/2	h	0	L/2	h	r
GW	2	1	0	-0.05	3*h/4	0	0.05	3*h/4	r
GE	-1
GN	2	0	0	0	13	0.005
EK
EX	0	2	1	0	1	0	0
TL	1	1	2	1	300	3*h/4	0	0	0	0
FR	0	0	0	0	14.2	0
EN
