CM 
CE
SY ph=226.4416
GW	1	1	0	0	2	0.16234973	0	1.97290862	1.e-3
GW	2	1	0.16234973	0	1.97290862	0.30710636	0	1.89457025	1.e-3
GW	3	1	0.30710636	0	1.89457025	0.41858324	0	1.77347408	1.e-3
GW	4	1	0.41858324	0	1.77347408	0.48470013	0	1.62274274	1.e-3
GW	5	1	0.48470013	0	1.62274274	0.49829225	0	1.45871033	1.e-3
GW	6	1	0.49829225	0	1.45871033	0.45788666	0	1.29915229	1.e-3
GW	7	1	0.45788666	0	1.29915229	0.36786196	0	1.16135921	1.e-3
GW	8	1	0.36786196	0	1.16135921	0.2379737	0	1.06026312	1.e-3
GW	9	1	0.2379737	0	1.06026312	0.0822973	0	1.00681935	1.e-3
GW	10	1	0.0822973	0	1.00681935	-0.0822973	0	1.00681935	1.e-3
GW	11	1	-0.0822973	0	1.00681935	-0.2379737	0	1.06026312	1.e-3
GW	12	1	-0.2379737	0	1.06026312	-0.367862	0	1.16135921	1.e-3
GW	13	1	-0.367862	0	1.16135921	-0.4578867	0	1.29915229	1.e-3
GW	14	1	-0.4578867	0	1.29915229	-0.4982922	0	1.45871033	1.e-3
GW	15	1	-0.4982922	0	1.45871033	-0.4847001	0	1.62274274	1.e-3
GW	16	1	-0.4847001	0	1.62274274	-0.4185832	0	1.77347408	1.e-3
GW	17	1	-0.4185832	0	1.77347408	-0.3071064	0	1.89457025	1.e-3
GW	18	1	-0.3071064	0	1.89457025	-0.1623497	0	1.97290862	1.e-3
GW	19	1	-0.1623497	0	1.97290862	0	0	2	1.e-3
GW	20	1	2	0	2	2.16234973	0	1.97290862	1.e-3
GW	21	1	2.16234973	0	1.97290862	2.30710636	0	1.89457025	1.e-3
GW	22	1	2.30710636	0	1.89457025	2.41858324	0	1.77347408	1.e-3
GW	23	1	2.41858324	0	1.77347408	2.48470013	0	1.62274274	1.e-3
GW	24	1	2.48470013	0	1.62274274	2.49829225	0	1.45871033	1.e-3
GW	25	1	2.49829225	0	1.45871033	2.45788666	0	1.29915229	1.e-3
GW	26	1	2.45788666	0	1.29915229	2.36786196	0	1.16135921	1.e-3
GW	27	1	2.36786196	0	1.16135921	2.2379737	0	1.06026312	1.e-3
GW	28	1	2.2379737	0	1.06026312	2.0822973	0	1.00681935	1.e-3
GW	29	1	2.0822973	0	1.00681935	1.9177027	0	1.00681935	1.e-3
GW	30	1	1.9177027	0	1.00681935	1.7620263	0	1.06026312	1.e-3
GW	31	1	1.7620263	0	1.06026312	1.632138	0	1.16135921	1.e-3
GW	32	1	1.632138	0	1.16135921	1.5421133	0	1.29915229	1.e-3
GW	33	1	1.5421133	0	1.29915229	1.5017078	0	1.45871033	1.e-3
GW	34	1	1.5017078	0	1.45871033	1.5152999	0	1.62274274	1.e-3
GW	35	1	1.5152999	0	1.62274274	1.5814168	0	1.77347408	1.e-3
GW	36	1	1.5814168	0	1.77347408	1.6928936	0	1.89457025	1.e-3
GW	37	1	1.6928936	0	1.89457025	1.8376503	0	1.97290862	1.e-3
GW	38	1	1.8376503	0	1.97290862	2	0	2	1.e-3
GW	39	1	4	0	2	4.16234973	0	1.97290862	1.e-3
GW	40	1	4.16234973	0	1.97290862	4.30710636	0	1.89457025	1.e-3
GW	41	1	4.30710636	0	1.89457025	4.41858324	0	1.77347408	1.e-3
GW	42	1	4.41858324	0	1.77347408	4.48470013	0	1.62274274	1.e-3
GW	43	1	4.48470013	0	1.62274274	4.49829225	0	1.45871033	1.e-3
GW	44	1	4.49829225	0	1.45871033	4.45788666	0	1.29915229	1.e-3
GW	45	1	4.45788666	0	1.29915229	4.36786196	0	1.16135921	1.e-3
GW	46	1	4.36786196	0	1.16135921	4.2379737	0	1.06026312	1.e-3
GW	47	1	4.2379737	0	1.06026312	4.0822973	0	1.00681935	1.e-3
GW	48	1	4.0822973	0	1.00681935	3.9177027	0	1.00681935	1.e-3
GW	49	1	3.9177027	0	1.00681935	3.7620263	0	1.06026312	1.e-3
GW	50	1	3.7620263	0	1.06026312	3.632138	0	1.16135921	1.e-3
GW	51	1	3.632138	0	1.16135921	3.5421133	0	1.29915229	1.e-3
GW	52	1	3.5421133	0	1.29915229	3.5017078	0	1.45871033	1.e-3
GW	53	1	3.5017078	0	1.45871033	3.5152999	0	1.62274274	1.e-3
GW	54	1	3.5152999	0	1.62274274	3.5814168	0	1.77347408	1.e-3
GW	55	1	3.5814168	0	1.77347408	3.6928936	0	1.89457025	1.e-3
GW	56	1	3.6928936	0	1.89457025	3.8376503	0	1.97290862	1.e-3
GW	57	1	3.8376503	0	1.97290862	4	0	2	1.e-3
GW	58	1	6	0	2	6.16234973	0	1.97290862	1.e-3
GW	59	1	6.16234973	0	1.97290862	6.30710636	0	1.89457025	1.e-3
GW	60	1	6.30710636	0	1.89457025	6.41858324	0	1.77347408	1.e-3
GW	61	1	6.41858324	0	1.77347408	6.48470013	0	1.62274274	1.e-3
GW	62	1	6.48470013	0	1.62274274	6.49829225	0	1.45871033	1.e-3
GW	63	1	6.49829225	0	1.45871033	6.45788666	0	1.29915229	1.e-3
GW	64	1	6.45788666	0	1.29915229	6.36786196	0	1.16135921	1.e-3
GW	65	1	6.36786196	0	1.16135921	6.2379737	0	1.06026312	1.e-3
GW	66	1	6.2379737	0	1.06026312	6.0822973	0	1.00681935	1.e-3
GW	67	1	6.0822973	0	1.00681935	5.9177027	0	1.00681935	1.e-3
GW	68	1	5.9177027	0	1.00681935	5.7620263	0	1.06026312	1.e-3
GW	69	1	5.7620263	0	1.06026312	5.632138	0	1.16135921	1.e-3
GW	70	1	5.632138	0	1.16135921	5.5421133	0	1.29915229	1.e-3
GW	71	1	5.5421133	0	1.29915229	5.5017078	0	1.45871033	1.e-3
GW	72	1	5.5017078	0	1.45871033	5.5152999	0	1.62274274	1.e-3
GW	73	1	5.5152999	0	1.62274274	5.5814168	0	1.77347408	1.e-3
GW	74	1	5.5814168	0	1.77347408	5.6928936	0	1.89457025	1.e-3
GW	75	1	5.6928936	0	1.89457025	5.8376503	0	1.97290862	1.e-3
GW	76	1	5.8376503	0	1.97290862	6	0	2	1.e-3
GE	-1
GN	2	0	0	0	13	0.005
EK
EX	0	10	1	0	1	0	0
EX	0	29	1	0	cos(1*ph/3)	sin(1*ph/3)	0
EX	0	48	1	0	cos(2*ph/3)	sin(2*ph/3)	0
EX	0	67	1	0	cos(ph)	sin(ph)	0
FR	0	0	0	0	7	0
EN
