CM 
CE
GW	1	9	0	0	2.2	1	0	3.2	1.e-3
GW	2	9	0	0	2.2	-1	0	3.2	1.e-3
GW	3	9	-1	0	3.2	0	0	4.2	1.e-3
GW	4	9	0	0	4.2	1	0	3.2	1.e-3
GW	5	3	0	0	2.2	0	0	2	1.e-3
GW	6	9	0	0	2	1.14017543	1.14017543	2	1.e-3
GW	7	9	0	0	2	1.61245155	0	2	1.e-3
GW	8	9	0	0	2	1.14017543	-1.1401754	2	1.e-3
GW	9	9	0	0	2	0	-1.6124515	2	1.e-3
GW	10	9	0	0	2	-1.1401754	-1.1401754	2	1.e-3
GW	11	9	0	0	2	-1.6124515	0	2	1.e-3
GW	12	9	0	0	2	-1.1401754	1.14017543	2	1.e-3
GW	13	9	0	0	2	0	1.61245155	2	1.e-3
GE	-1
LD	4	2	1	0	0	-10
GN	2	0	0	0	13	0.005
EK
EX	0	5	2	0	1	0	0
FR	0	0	0	0	7	0
EN
