CM 
CE
SY L=12.4
SY D=0.02
SY r=0.001
GW	1	49	0	0	2	0	0	L	D/2
GW	2	47	0	0	2	1.95090322	9.8078528	2	r
GW	3	47	0	0	2	3.82683432	9.23879533	2	r
GW	4	47	0	0	2	5.55570233	8.31469612	2	r
GW	5	47	0	0	2	7.07106781	7.07106781	2	r
GW	6	47	0	0	2	8.31469612	5.55570233	2	r
GW	7	47	0	0	2	9.23879533	3.82683432	2	r
GW	8	47	0	0	2	9.8078528	1.95090322	2	r
GW	9	47	0	0	2	10	0	2	r
GW	10	47	0	0	2	9.8078528	-1.9509032	2	r
GW	11	47	0	0	2	9.23879533	-3.8268343	2	r
GW	12	47	0	0	2	8.31469612	-5.5557023	2	r
GW	13	47	0	0	2	7.07106781	-7.0710678	2	r
GW	14	47	0	0	2	5.55570233	-8.3146961	2	r
GW	15	47	0	0	2	3.82683432	-9.2387953	2	r
GW	16	47	0	0	2	1.95090322	-9.8078528	2	r
GW	17	47	0	0	2	0	-10	2	r
GW	18	47	0	0	2	-1.9509032	-9.8078528	2	r
GW	19	47	0	0	2	-3.8268343	-9.2387953	2	r
GW	20	47	0	0	2	-5.5557023	-8.3146961	2	r
GW	21	47	0	0	2	-7.0710678	-7.0710678	2	r
GW	22	47	0	0	2	-8.3146961	-5.5557023	2	r
GW	23	47	0	0	2	-9.2387953	-3.8268343	2	r
GW	24	47	0	0	2	-9.8078528	-1.9509032	2	r
GW	25	47	0	0	2	-10	0	2	r
GW	26	47	0	0	2	-9.8078528	1.95090322	2	r
GW	27	47	0	0	2	-9.2387953	3.82683432	2	r
GW	28	47	0	0	2	-8.3146961	5.55570233	2	r
GW	29	47	0	0	2	-7.0710678	7.07106781	2	r
GW	30	47	0	0	2	-5.5557023	8.31469612	2	r
GW	31	47	0	0	2	-3.8268343	9.23879533	2	r
GW	32	47	0	0	2	-1.9509032	9.8078528	2	r
GW	33	47	0	0	2	0	10	2	r
GE	-1
GN	2	0	0	0	81	5.0
EK
EX	0	1	1	0	1	0	0
FR	0	0	0	0	7.1	0
EN
