CM 
CE
SY w=6.277978
SY h=w*2.5
SY a=5.4
GW	1	7	0	w/2	a	0	-w/2	a	0.001
GW	2	7	0	w/2	a+h	0	-w/2	a+h	0.001
GW	3	11	0	w/2	a	0	w/2	a+h	0.001
GW	4	11	0	-w/2	a	0	-w/2	a+h	0.001
GE	1
GN	2	0	0	0	13	0.005
EK
EX	0	1	4	0	1	0	0
FR	0	0	0	0	7.1	0
EN
