CM 
CE
SY r1=600
SY r2=600
SY D=2
GW	1	5	0	0	5	0	0	4	1.e-3
GW	2	5	1	0	5	1	0	4	1.e-3
GW	3	5	1	0	5	0	0	5	1.e-3
GW	4	5	1	0	4	0	0	4	1.e-3
GW	5	5	0+D	0	5	0+D	0	4	1.e-3
GW	6	5	1+D	0	5	1+D	0	4	1.e-3
GW	7	5	1+D	0	5	0+D	0	5	1.e-3
GW	8	5	1+D	0	4	0+D	0	4	1.e-3
GW	9	5	0+(2*D)	0	5	0+(2*D)	0	4	1.e-3
GW	10	5	1+(2*D)	0	5	1+(2*D)	0	4	1.e-3
GW	11	5	1+(2*D)	0	5	0+(2*D)	0	5	1.e-3
GW	12	5	1+(2*D)	0	4	0+(2*D)	0	4	1.e-3
GW	13	5	0+D+(2*D)	0	5	0+D+(2*D)	0	4	1.e-3
GW	14	5	1+D+(2*D)	0	5	1+D+(2*D)	0	4	1.e-3
GW	15	5	1+D+(2*D)	0	5	0+D+(2*D)	0	5	1.e-3
GW	16	5	1+D+(2*D)	0	4	0+D+(2*D)	0	4	1.e-3
GE	1
LD	4	2	3	0	r1
LD	4	6	3	0	r2
LD	4	10	3	0	r1
LD	4	14	3	0	r2
GN	2	0	0	0	13	0.005
EK
EX	0	1	3	0	1	0	0
EX	0	5	3	0	-1	0	0	0
EX	0	9	3	0	-1	0	0
EX	0	13	3	0	1	0	0	0
FR	0	0	0	0	7	0
EN
