CM Antennas Direct 91XG, XG91a.ez by Ken Nist, converted with 4nec2 on 24Nov2008
CM holl_ands added Rscr to adjust AGT=1.0 plus various FR & RP Cards, Rev A 24Aug2009
CM holl_ands mods: Add Extensions to ends of ALL Bowtie Directors, 17Aug2013.
CM Could NOT run Python Optimization Script due to unknown Errors, so did it manually.
CE
SY Rsrc=0.002	' SOURCE Wire Radius, adjust for AGT=1.0: UHF=0.002 & HiVHF=0.004
' Variables for Extensions to Bowtie Directors, Optimize using Python Scripts:
SY Zmax=2.42' 1.5, 3.5
SY Ymax=3*Zmax
'
GW	1	5	5.885	1.1	-0.5	5.885	-1.1	-0.5	Rsrc
GW	2	1	6.08	1.5	-0.5	5.885	1.1	-0.5	0.04
GW	3	1	5.885	-1.1	-0.5	6.08	-1.5	-0.5	0.04
GW	4	3	5.885	-1.1	-0.5	5.885	-1.1	0.22	0.04
GW	5	1	5.885	1.1	-0.5	5.69	1.5	-0.5	0.04
GW	6	3	5.885	1.1	-0.5	5.885	1.1	0.22	0.04
GW	7	1	5.885	-1.1	0.22	5.69	-1.5	0.22	0.04
GW	8	1	5.885	1.1	0.22	6.08	1.5	0.22	0.04
GW	9	1	6.08	1.5	0.22	6.08	2	0.7	0.04
GW	10	1	5.69	-1.5	0.22	5.69	-2	0.7	0.04
GW	11	1	5.69	-1.5	-0.5	5.885	-1.1	-0.5	0.04
GW	12	9	5.69	-2	0.7	5.69	-5.6	0.9	0.04
GW	13	5	5.69	-5.6	0.9	5.69	-7.6	0.7	0.04
GW	14	1	5.69	-7.6	0.7	5.69	-7.85	0.45	0.04
GW	15	1	5.69	-7.85	0.45	5.69	-7.85	-0.25	0.04
GW	16	1	5.69	-7.85	-0.25	5.69	-7.6	-0.5	0.04
GW	17	5	5.69	-7.6	-0.5	5.69	-5.6	-0.65	0.04
GW	18	5	5.69	-5.6	-0.65	5.69	-3	-0.5	0.04
GW	19	3	5.69	-3	-0.5	5.69	-1.5	-0.5	0.04
GW	20	1	5.885	-1.1	0.22	6.08	-1.5	0.22	0.04
GW	21	1	6.08	-1.5	0.22	6.08	-2	0.7	0.04
GW	22	9	6.08	-2	0.7	6.08	-5.6	0.9	0.04
GW	23	5	6.08	-5.6	0.9	6.08	-7.6	0.7	0.04
GW	24	1	6.08	-7.6	0.7	6.08	-7.85	0.45	0.04
GW	25	1	6.08	-7.85	0.45	6.08	-7.85	-0.25	0.04
GW	26	1	6.08	-7.85	-0.25	6.08	-7.6	-0.5	0.04
GW	27	5	6.08	-7.6	-0.5	6.08	-5.6	-0.65	0.04
GW	28	5	6.08	-5.6	-0.65	6.08	-3	-0.5	0.04
GW	29	3	6.08	-3	-0.5	6.08	-1.5	-0.5	0.04
GW	30	1	5.69	-2	0.7	6.08	-2	0.7	0.04
GW	31	1	5.69	-5.6	0.9	6.08	-5.6	0.9	0.04
GW	32	1	5.69	-7.6	0.7	6.08	-7.6	0.7	0.04
GW	33	1	5.69	-7.85	0.45	6.08	-7.85	0.45	0.04
GW	34	1	5.69	-7.85	-0.25	6.08	-7.85	-0.25	0.04
GW	35	1	5.69	-7.6	-0.5	6.08	-7.6	-0.5	0.04
GW	36	1	5.69	-5.6	-0.65	6.08	-5.6	-0.65	0.04
GW	37	1	5.69	-3	-0.5	6.08	-3	-0.5	0.04
GW	38	9	6.08	2	0.7	6.08	5.6	0.9	0.04
GW	39	5	6.08	5.6	0.9	6.08	7.6	0.7	0.04
GW	40	1	6.08	7.6	0.7	6.08	7.85	0.45	0.04
GW	41	1	6.08	7.85	0.45	6.08	7.85	-0.25	0.04
GW	42	1	6.08	7.85	-0.25	6.08	7.6	-0.5	0.04
GW	43	5	6.08	7.6	-0.5	6.08	5.6	-0.65	0.04
GW	44	5	6.08	5.6	-0.65	6.08	3	-0.5	0.04
GW	45	3	6.08	3	-0.5	6.08	1.5	-0.5	0.04
GW	46	1	5.885	1.1	0.22	5.69	1.5	0.22	0.04
GW	47	1	5.69	1.5	0.22	5.69	2	0.7	0.04
GW	48	9	5.69	2	0.7	5.69	5.6	0.9	0.04
GW	49	5	5.69	5.6	0.9	5.69	7.6	0.7	0.04
GW	50	1	5.69	7.6	0.7	5.69	7.85	0.45	0.04
GW	51	1	5.69	7.85	0.45	5.69	7.85	-0.25	0.04
GW	52	1	5.69	7.85	-0.25	5.69	7.6	-0.5	0.04
GW	53	5	5.69	7.6	-0.5	5.69	5.6	-0.65	0.04
GW	54	5	5.69	5.6	-0.65	5.69	3	-0.5	0.04
GW	55	3	5.69	3	-0.5	5.69	1.5	-0.5	0.04
GW	56	1	6.08	2	0.7	5.69	2	0.7	0.04
GW	57	1	6.08	5.6	0.9	5.69	5.6	0.9	0.04
GW	58	1	6.08	7.6	0.7	5.69	7.6	0.7	0.04
GW	59	1	6.08	7.85	0.45	5.69	7.85	0.45	0.04
GW	60	1	6.08	7.85	-0.25	5.69	7.85	-0.25	0.04
GW	61	1	6.08	7.6	-0.5	5.69	7.6	-0.5	0.04
GW	62	1	6.08	5.6	-0.65	5.69	5.6	-0.65	0.04
GW	63	1	6.08	3	-0.5	5.69	3	-0.5	0.04
GW	64	5	7.06	3.14	0	7.06	1	0	0.04
GW	65	3	7.06	1	0	7.06	0	0	0.04
GW	66	5	6.67	3.14	0	6.67	1	0	0.04
GW	67	3	6.67	1	0	6.67	0	0	0.04
GW	68	1	7.06	3.14	0	6.67	3.14	0	0.04
GW	69	1	7.06	-1	0	6.67	-1	0	0.04
GW	70	3	7.06	-1	0	7.06	0	0	0.04
GW	71	5	6.67	-3.14	0	6.67	-1	0	0.04
GW	72	3	6.67	-1	0	6.67	0	0	0.04
GW	73	1	7.06	-3.14	0	6.67	-3.14	0	0.04
GW	74	5	7.06	-1	0	7.06	-3.14	0	0.04
GW	75	1	7.06	1	0	6.67	1	0	0.04
GW	76	3	7.87	2.75	0.5	7.87	2.75	-0.5	0.04
GW	77	1	7.87	1.56	0.5	7.87	1.56	0	0.04
GW	78	1	7.87	1.56	0	7.87	1.56	-0.5	0.04
GW	79	3	7.87	1.56	0	7.87	2.75	0.5	0.04
GW	80	3	7.87	1.56	0	7.87	2.75	-0.5	0.04
GW	81	1	7.87	2.75	0.5	7.87	2.2	0.9	0.04
GW	82	1	7.87	2.75	-0.5	7.87	2.2	-0.9	0.04
GW	83	3	7.87	2.75	0.5	7.87	1.56	0.5	0.04
GW	84	3	7.87	2.75	-0.5	7.87	1.56	-0.5	0.04
GW	85	1	7.87	2.75	0.5	7.87	3.2	0.82	0.04
GW	86	3	7.87	3.2	0.82	7.87	3.9	1.15	0.04
GW	87	3	7.87	3.9	1.15	7.87	5.05	1.55	0.04
GW	88	3	7.87	5.05	1.55	7.87	6.2	1.9	0.04
GW	89	1	7.87	6.2	1.9	7.87	6.12	2.17	0.04
GW	90	1	7.87	2.75	1.15	7.87	3.2	0.82	0.04
GW	91	1	7.87	2.2	0.9	7.87	2.75	1.15	0.04
GW	92	3	7.87	2.2	0.9	7.87	1.56	0.5	0.04
GW	93	3	7.87	4.97	1.88	7.87	6.12	2.17	0.04
GW	94	1	7.87	4.97	1.88	7.87	5.05	1.55	0.04
GW	95	1	7.87	3.9	1.15	7.87	3.8	1.55	0.04
GW	96	3	7.87	3.8	1.55	7.87	4.97	1.88	0.04
GW	97	3	7.87	2.75	1.15	7.87	3.8	1.55	0.04
GW	98	1	7.87	2.75	-0.5	7.87	3.2	-0.82	0.04
GW	99	3	7.87	3.2	-0.82	7.87	3.9	-1.15	0.04
GW	100	3	7.87	3.9	-1.15	7.87	5.05	-1.55	0.04
GW	101	3	7.87	5.05	-1.55	7.87	6.2	-1.9	0.04
GW	102	1	7.87	6.2	-1.9	7.87	6.12	-2.17	0.04
GW	103	1	7.87	2.75	-1.15	7.87	3.2	-0.82	0.04
GW	104	1	7.87	2.2	-0.9	7.87	2.75	-1.15	0.04
GW	105	3	7.87	2.2	-0.9	7.87	1.56	-0.5	0.04
GW	106	3	7.87	4.97	-1.88	7.87	6.12	-2.17	0.04
GW	107	1	7.87	4.97	-1.88	7.87	5.05	-1.55	0.04
GW	108	1	7.87	3.9	-1.15	7.87	3.8	-1.55	0.04
GW	109	3	7.87	3.8	-1.55	7.87	4.97	-1.88	0.04
GW	110	3	7.87	2.75	-1.15	7.87	3.8	-1.55	0.04
GW	111	3	7.87	-2.75	-0.5	7.87	-2.75	0.5	0.04
GW	112	1	7.87	-1.56	-0.5	7.87	-1.56	0	0.04
GW	113	1	7.87	-1.56	0	7.87	-1.56	0.5	0.04
GW	114	3	7.87	-1.56	0	7.87	-2.75	-0.5	0.04
GW	115	3	7.87	-1.56	0	7.87	-2.75	0.5	0.04
GW	116	1	7.87	-2.75	-0.5	7.87	-2.2	-0.9	0.04
GW	117	1	7.87	-2.75	0.5	7.87	-2.2	0.9	0.04
GW	118	3	7.87	-2.75	-0.5	7.87	-1.56	-0.5	0.04
GW	119	3	7.87	-2.75	0.5	7.87	-1.56	0.5	0.04
GW	120	1	7.87	-2.75	-0.5	7.87	-3.2	-0.82	0.04
GW	121	3	7.87	-3.2	-0.82	7.87	-3.9	-1.15	0.04
GW	122	3	7.87	-3.9	-1.15	7.87	-5.05	-1.55	0.04
GW	123	3	7.87	-5.05	-1.55	7.87	-6.2	-1.9	0.04
GW	124	1	7.87	-6.2	-1.9	7.87	-6.12	-2.17	0.04
GW	125	1	7.87	-2.75	-1.15	7.87	-3.2	-0.82	0.04
GW	126	1	7.87	-2.2	-0.9	7.87	-2.75	-1.15	0.04
GW	127	3	7.87	-2.2	-0.9	7.87	-1.56	-0.5	0.04
GW	128	3	7.87	-4.97	-1.88	7.87	-6.12	-2.17	0.04
GW	129	1	7.87	-4.97	-1.88	7.87	-5.05	-1.55	0.04
GW	130	1	7.87	-3.9	-1.15	7.87	-3.8	-1.55	0.04
GW	131	3	7.87	-3.8	-1.55	7.87	-4.97	-1.88	0.04
GW	132	3	7.87	-2.75	-1.15	7.87	-3.8	-1.55	0.04
GW	133	1	7.87	-2.75	0.5	7.87	-3.2	0.82	0.04
GW	134	3	7.87	-3.2	0.82	7.87	-3.9	1.15	0.04
GW	135	3	7.87	-3.9	1.15	7.87	-5.05	1.55	0.04
GW	136	3	7.87	-5.05	1.55	7.87	-6.2	1.9	0.04
GW	137	1	7.87	-6.2	1.9	7.87	-6.12	2.17	0.04
GW	138	1	7.87	-2.75	1.15	7.87	-3.2	0.82	0.04
GW	139	1	7.87	-2.2	0.9	7.87	-2.75	1.15	0.04
GW	140	3	7.87	-2.2	0.9	7.87	-1.56	0.5	0.04
GW	141	3	7.87	-4.97	1.88	7.87	-6.12	2.17	0.04
GW	142	1	7.87	-4.97	1.88	7.87	-5.05	1.55	0.04
GW	143	1	7.87	-3.9	1.15	7.87	-3.8	1.55	0.04
GW	144	3	7.87	-3.8	1.55	7.87	-4.97	1.88	0.04
GW	145	3	7.87	-2.75	1.15	7.87	-3.8	1.55	0.04
GW	146	3	9.25	2.75	0.5	9.25	2.75	-0.5	0.04
GW	147	1	9.25	1.56	0.5	9.25	1.56	0	0.04
GW	148	1	9.25	1.56	0	9.25	1.56	-0.5	0.04
GW	149	3	9.25	1.56	0	9.25	2.75	0.5	0.04
GW	150	3	9.25	1.56	0	9.25	2.75	-0.5	0.04
GW	151	1	9.25	2.75	0.5	9.25	2.2	0.9	0.04
GW	152	1	9.25	2.75	-0.5	9.25	2.2	-0.9	0.04
GW	153	3	9.25	2.75	0.5	9.25	1.56	0.5	0.04
GW	154	3	9.25	2.75	-0.5	9.25	1.56	-0.5	0.04
GW	155	1	9.25	2.75	0.5	9.25	3.2	0.82	0.04
GW	156	3	9.25	3.2	0.82	9.25	3.9	1.15	0.04
GW	157	3	9.25	3.9	1.15	9.25	5.05	1.55	0.04
GW	158	3	9.25	5.05	1.55	9.25	6.2	1.9	0.04
GW	159	1	9.25	6.2	1.9	9.25	6.12	2.17	0.04
GW	160	1	9.25	2.75	1.15	9.25	3.2	0.82	0.04
GW	161	1	9.25	2.2	0.9	9.25	2.75	1.15	0.04
GW	162	3	9.25	2.2	0.9	9.25	1.56	0.5	0.04
GW	163	3	9.25	4.97	1.88	9.25	6.12	2.17	0.04
GW	164	1	9.25	4.97	1.88	9.25	5.05	1.55	0.04
GW	165	1	9.25	3.9	1.15	9.25	3.8	1.55	0.04
GW	166	3	9.25	3.8	1.55	9.25	4.97	1.88	0.04
GW	167	3	9.25	2.75	1.15	9.25	3.8	1.55	0.04
GW	168	1	9.25	2.75	-0.5	9.25	3.2	-0.82	0.04
GW	169	3	9.25	3.2	-0.82	9.25	3.9	-1.15	0.04
GW	170	3	9.25	3.9	-1.15	9.25	5.05	-1.55	0.04
GW	171	3	9.25	5.05	-1.55	9.25	6.2	-1.9	0.04
GW	172	1	9.25	6.2	-1.9	9.25	6.12	-2.17	0.04
GW	173	1	9.25	2.75	-1.15	9.25	3.2	-0.82	0.04
GW	174	1	9.25	2.2	-0.9	9.25	2.75	-1.15	0.04
GW	175	3	9.25	2.2	-0.9	9.25	1.56	-0.5	0.04
GW	176	3	9.25	4.97	-1.88	9.25	6.12	-2.17	0.04
GW	177	1	9.25	4.97	-1.88	9.25	5.05	-1.55	0.04
GW	178	1	9.25	3.9	-1.15	9.25	3.8	-1.55	0.04
GW	179	3	9.25	3.8	-1.55	9.25	4.97	-1.88	0.04
GW	180	3	9.25	2.75	-1.15	9.25	3.8	-1.55	0.04
GW	181	3	9.25	-2.75	-0.5	9.25	-2.75	0.5	0.04
GW	182	1	9.25	-1.56	-0.5	9.25	-1.56	0	0.04
GW	183	1	9.25	-1.56	0	9.25	-1.56	0.5	0.04
GW	184	3	9.25	-1.56	0	9.25	-2.75	-0.5	0.04
GW	185	3	9.25	-1.56	0	9.25	-2.75	0.5	0.04
GW	186	1	9.25	-2.75	-0.5	9.25	-2.2	-0.9	0.04
GW	187	1	9.25	-2.75	0.5	9.25	-2.2	0.9	0.04
GW	188	3	9.25	-2.75	-0.5	9.25	-1.56	-0.5	0.04
GW	189	3	9.25	-2.75	0.5	9.25	-1.56	0.5	0.04
GW	190	1	9.25	-2.75	-0.5	9.25	-3.2	-0.82	0.04
GW	191	3	9.25	-3.2	-0.82	9.25	-3.9	-1.15	0.04
GW	192	3	9.25	-3.9	-1.15	9.25	-5.05	-1.55	0.04
GW	193	3	9.25	-5.05	-1.55	9.25	-6.2	-1.9	0.04
GW	194	1	9.25	-6.2	-1.9	9.25	-6.12	-2.17	0.04
GW	195	1	9.25	-2.75	-1.15	9.25	-3.2	-0.82	0.04
GW	196	1	9.25	-2.2	-0.9	9.25	-2.75	-1.15	0.04
GW	197	3	9.25	-2.2	-0.9	9.25	-1.56	-0.5	0.04
GW	198	3	9.25	-4.97	-1.88	9.25	-6.12	-2.17	0.04
GW	199	1	9.25	-4.97	-1.88	9.25	-5.05	-1.55	0.04
GW	200	1	9.25	-3.9	-1.15	9.25	-3.8	-1.55	0.04
GW	201	3	9.25	-3.8	-1.55	9.25	-4.97	-1.88	0.04
GW	202	3	9.25	-2.75	-1.15	9.25	-3.8	-1.55	0.04
GW	203	1	9.25	-2.75	0.5	9.25	-3.2	0.82	0.04
GW	204	3	9.25	-3.2	0.82	9.25	-3.9	1.15	0.04
GW	205	3	9.25	-3.9	1.15	9.25	-5.05	1.55	0.04
GW	206	3	9.25	-5.05	1.55	9.25	-6.2	1.9	0.04
GW	207	1	9.25	-6.2	1.9	9.25	-6.12	2.17	0.04
GW	208	1	9.25	-2.75	1.15	9.25	-3.2	0.82	0.04
GW	209	1	9.25	-2.2	0.9	9.25	-2.75	1.15	0.04
GW	210	3	9.25	-2.2	0.9	9.25	-1.56	0.5	0.04
GW	211	3	9.25	-4.97	1.88	9.25	-6.12	2.17	0.04
GW	212	1	9.25	-4.97	1.88	9.25	-5.05	1.55	0.04
GW	213	1	9.25	-3.9	1.15	9.25	-3.8	1.55	0.04
GW	214	3	9.25	-3.8	1.55	9.25	-4.97	1.88	0.04
GW	215	3	9.25	-2.75	1.15	9.25	-3.8	1.55	0.04
GW	216	3	10.8	2.75	0.5	10.8	2.75	-0.5	0.04
GW	217	1	10.8	1.56	0.5	10.8	1.56	0	0.04
GW	218	1	10.8	1.56	0	10.8	1.56	-0.5	0.04
GW	219	3	10.8	1.56	0	10.8	2.75	0.5	0.04
GW	220	3	10.8	1.56	0	10.8	2.75	-0.5	0.04
GW	221	1	10.8	2.75	0.5	10.8	2.2	0.9	0.04
GW	222	1	10.8	2.75	-0.5	10.8	2.2	-0.9	0.04
GW	223	3	10.8	2.75	0.5	10.8	1.56	0.5	0.04
GW	224	3	10.8	2.75	-0.5	10.8	1.56	-0.5	0.04
GW	225	1	10.8	2.75	0.5	10.8	3.2	0.82	0.04
GW	226	3	10.8	3.2	0.82	10.8	3.9	1.15	0.04
GW	227	3	10.8	3.9	1.15	10.8	5.05	1.55	0.04
GW	228	3	10.8	5.05	1.55	10.8	6.2	1.9	0.04
GW	229	1	10.8	6.2	1.9	10.8	6.12	2.17	0.04
GW	230	1	10.8	2.75	1.15	10.8	3.2	0.82	0.04
GW	231	1	10.8	2.2	0.9	10.8	2.75	1.15	0.04
GW	232	3	10.8	2.2	0.9	10.8	1.56	0.5	0.04
GW	233	3	10.8	4.97	1.88	10.8	6.12	2.17	0.04
GW	234	1	10.8	4.97	1.88	10.8	5.05	1.55	0.04
GW	235	1	10.8	3.9	1.15	10.8	3.8	1.55	0.04
GW	236	3	10.8	3.8	1.55	10.8	4.97	1.88	0.04
GW	237	3	10.8	2.75	1.15	10.8	3.8	1.55	0.04
GW	238	1	10.8	2.75	-0.5	10.8	3.2	-0.82	0.04
GW	239	3	10.8	3.2	-0.82	10.8	3.9	-1.15	0.04
GW	240	3	10.8	3.9	-1.15	10.8	5.05	-1.55	0.04
GW	241	3	10.8	5.05	-1.55	10.8	6.2	-1.9	0.04
GW	242	1	10.8	6.2	-1.9	10.8	6.12	-2.17	0.04
GW	243	1	10.8	2.75	-1.15	10.8	3.2	-0.82	0.04
GW	244	1	10.8	2.2	-0.9	10.8	2.75	-1.15	0.04
GW	245	3	10.8	2.2	-0.9	10.8	1.56	-0.5	0.04
GW	246	3	10.8	4.97	-1.88	10.8	6.12	-2.17	0.04
GW	247	1	10.8	4.97	-1.88	10.8	5.05	-1.55	0.04
GW	248	1	10.8	3.9	-1.15	10.8	3.8	-1.55	0.04
GW	249	3	10.8	3.8	-1.55	10.8	4.97	-1.88	0.04
GW	250	3	10.8	2.75	-1.15	10.8	3.8	-1.55	0.04
GW	251	3	10.8	-2.75	-0.5	10.8	-2.75	0.5	0.04
GW	252	1	10.8	-1.56	-0.5	10.8	-1.56	0	0.04
GW	253	1	10.8	-1.56	0	10.8	-1.56	0.5	0.04
GW	254	3	10.8	-1.56	0	10.8	-2.75	-0.5	0.04
GW	255	3	10.8	-1.56	0	10.8	-2.75	0.5	0.04
GW	256	1	10.8	-2.75	-0.5	10.8	-2.2	-0.9	0.04
GW	257	1	10.8	-2.75	0.5	10.8	-2.2	0.9	0.04
GW	258	3	10.8	-2.75	-0.5	10.8	-1.56	-0.5	0.04
GW	259	3	10.8	-2.75	0.5	10.8	-1.56	0.5	0.04
GW	260	1	10.8	-2.75	-0.5	10.8	-3.2	-0.82	0.04
GW	261	3	10.8	-3.2	-0.82	10.8	-3.9	-1.15	0.04
GW	262	3	10.8	-3.9	-1.15	10.8	-5.05	-1.55	0.04
GW	263	3	10.8	-5.05	-1.55	10.8	-6.2	-1.9	0.04
GW	264	1	10.8	-6.2	-1.9	10.8	-6.12	-2.17	0.04
GW	265	1	10.8	-2.75	-1.15	10.8	-3.2	-0.82	0.04
GW	266	1	10.8	-2.2	-0.9	10.8	-2.75	-1.15	0.04
GW	267	3	10.8	-2.2	-0.9	10.8	-1.56	-0.5	0.04
GW	268	3	10.8	-4.97	-1.88	10.8	-6.12	-2.17	0.04
GW	269	1	10.8	-4.97	-1.88	10.8	-5.05	-1.55	0.04
GW	270	1	10.8	-3.9	-1.15	10.8	-3.8	-1.55	0.04
GW	271	3	10.8	-3.8	-1.55	10.8	-4.97	-1.88	0.04
GW	272	3	10.8	-2.75	-1.15	10.8	-3.8	-1.55	0.04
GW	273	1	10.8	-2.75	0.5	10.8	-3.2	0.82	0.04
GW	274	3	10.8	-3.2	0.82	10.8	-3.9	1.15	0.04
GW	275	3	10.8	-3.9	1.15	10.8	-5.05	1.55	0.04
GW	276	3	10.8	-5.05	1.55	10.8	-6.2	1.9	0.04
GW	277	1	10.8	-6.2	1.9	10.8	-6.12	2.17	0.04
GW	278	1	10.8	-2.75	1.15	10.8	-3.2	0.82	0.04
GW	279	1	10.8	-2.2	0.9	10.8	-2.75	1.15	0.04
GW	280	3	10.8	-2.2	0.9	10.8	-1.56	0.5	0.04
GW	281	3	10.8	-4.97	1.88	10.8	-6.12	2.17	0.04
GW	282	1	10.8	-4.97	1.88	10.8	-5.05	1.55	0.04
GW	283	1	10.8	-3.9	1.15	10.8	-3.8	1.55	0.04
GW	284	3	10.8	-3.8	1.55	10.8	-4.97	1.88	0.04
GW	285	3	10.8	-2.75	1.15	10.8	-3.8	1.55	0.04
GW	286	3	12.55	2.75	0.5	12.55	2.75	-0.5	0.04
GW	287	1	12.55	1.56	0.5	12.55	1.56	0	0.04
GW	288	1	12.55	1.56	0	12.55	1.56	-0.5	0.04
GW	289	3	12.55	1.56	0	12.55	2.75	0.5	0.04
GW	290	3	12.55	1.56	0	12.55	2.75	-0.5	0.04
GW	291	1	12.55	2.75	0.5	12.55	2.2	0.9	0.04
GW	292	1	12.55	2.75	-0.5	12.55	2.2	-0.9	0.04
GW	293	3	12.55	2.75	0.5	12.55	1.56	0.5	0.04
GW	294	3	12.55	2.75	-0.5	12.55	1.56	-0.5	0.04
GW	295	1	12.55	2.75	0.5	12.55	3.2	0.82	0.04
GW	296	3	12.55	3.2	0.82	12.55	3.9	1.15	0.04
GW	297	3	12.55	3.9	1.15	12.55	5.05	1.55	0.04
GW	298	3	12.55	5.05	1.55	12.55	6.2	1.9	0.04
GW	299	1	12.55	6.2	1.9	12.55	6.12	2.17	0.04
GW	300	1	12.55	2.75	1.15	12.55	3.2	0.82	0.04
GW	301	1	12.55	2.2	0.9	12.55	2.75	1.15	0.04
GW	302	3	12.55	2.2	0.9	12.55	1.56	0.5	0.04
GW	303	3	12.55	4.97	1.88	12.55	6.12	2.17	0.04
GW	304	1	12.55	4.97	1.88	12.55	5.05	1.55	0.04
GW	305	1	12.55	3.9	1.15	12.55	3.8	1.55	0.04
GW	306	3	12.55	3.8	1.55	12.55	4.97	1.88	0.04
GW	307	3	12.55	2.75	1.15	12.55	3.8	1.55	0.04
GW	308	1	12.55	2.75	-0.5	12.55	3.2	-0.82	0.04
GW	309	3	12.55	3.2	-0.82	12.55	3.9	-1.15	0.04
GW	310	3	12.55	3.9	-1.15	12.55	5.05	-1.55	0.04
GW	311	3	12.55	5.05	-1.55	12.55	6.2	-1.9	0.04
GW	312	1	12.55	6.2	-1.9	12.55	6.12	-2.17	0.04
GW	313	1	12.55	2.75	-1.15	12.55	3.2	-0.82	0.04
GW	314	1	12.55	2.2	-0.9	12.55	2.75	-1.15	0.04
GW	315	3	12.55	2.2	-0.9	12.55	1.56	-0.5	0.04
GW	316	3	12.55	4.97	-1.88	12.55	6.12	-2.17	0.04
GW	317	1	12.55	4.97	-1.88	12.55	5.05	-1.55	0.04
GW	318	1	12.55	3.9	-1.15	12.55	3.8	-1.55	0.04
GW	319	3	12.55	3.8	-1.55	12.55	4.97	-1.88	0.04
GW	320	3	12.55	2.75	-1.15	12.55	3.8	-1.55	0.04
GW	321	3	12.55	-2.75	-0.5	12.55	-2.75	0.5	0.04
GW	322	1	12.55	-1.56	-0.5	12.55	-1.56	0	0.04
GW	323	1	12.55	-1.56	0	12.55	-1.56	0.5	0.04
GW	324	3	12.55	-1.56	0	12.55	-2.75	-0.5	0.04
GW	325	3	12.55	-1.56	0	12.55	-2.75	0.5	0.04
GW	326	1	12.55	-2.75	-0.5	12.55	-2.2	-0.9	0.04
GW	327	1	12.55	-2.75	0.5	12.55	-2.2	0.9	0.04
GW	328	3	12.55	-2.75	-0.5	12.55	-1.56	-0.5	0.04
GW	329	3	12.55	-2.75	0.5	12.55	-1.56	0.5	0.04
GW	330	1	12.55	-2.75	-0.5	12.55	-3.2	-0.82	0.04
GW	331	3	12.55	-3.2	-0.82	12.55	-3.9	-1.15	0.04
GW	332	3	12.55	-3.9	-1.15	12.55	-5.05	-1.55	0.04
GW	333	3	12.55	-5.05	-1.55	12.55	-6.2	-1.9	0.04
GW	334	1	12.55	-6.2	-1.9	12.55	-6.12	-2.17	0.04
GW	335	1	12.55	-2.75	-1.15	12.55	-3.2	-0.82	0.04
GW	336	1	12.55	-2.2	-0.9	12.55	-2.75	-1.15	0.04
GW	337	3	12.55	-2.2	-0.9	12.55	-1.56	-0.5	0.04
GW	338	3	12.55	-4.97	-1.88	12.55	-6.12	-2.17	0.04
GW	339	1	12.55	-4.97	-1.88	12.55	-5.05	-1.55	0.04
GW	340	1	12.55	-3.9	-1.15	12.55	-3.8	-1.55	0.04
GW	341	3	12.55	-3.8	-1.55	12.55	-4.97	-1.88	0.04
GW	342	3	12.55	-2.75	-1.15	12.55	-3.8	-1.55	0.04
GW	343	1	12.55	-2.75	0.5	12.55	-3.2	0.82	0.04
GW	344	3	12.55	-3.2	0.82	12.55	-3.9	1.15	0.04
GW	345	3	12.55	-3.9	1.15	12.55	-5.05	1.55	0.04
GW	346	3	12.55	-5.05	1.55	12.55	-6.2	1.9	0.04
GW	347	1	12.55	-6.2	1.9	12.55	-6.12	2.17	0.04
GW	348	1	12.55	-2.75	1.15	12.55	-3.2	0.82	0.04
GW	349	1	12.55	-2.2	0.9	12.55	-2.75	1.15	0.04
GW	350	3	12.55	-2.2	0.9	12.55	-1.56	0.5	0.04
GW	351	3	12.55	-4.97	1.88	12.55	-6.12	2.17	0.04
GW	352	1	12.55	-4.97	1.88	12.55	-5.05	1.55	0.04
GW	353	1	12.55	-3.9	1.15	12.55	-3.8	1.55	0.04
GW	354	3	12.55	-3.8	1.55	12.55	-4.97	1.88	0.04
GW	355	3	12.55	-2.75	1.15	12.55	-3.8	1.55	0.04
GW	356	3	14.37	2.75	0.5	14.37	2.75	-0.5	0.04
GW	357	1	14.37	1.56	0.5	14.37	1.56	0	0.04
GW	358	1	14.37	1.56	0	14.37	1.56	-0.5	0.04
GW	359	3	14.37	1.56	0	14.37	2.75	0.5	0.04
GW	360	3	14.37	1.56	0	14.37	2.75	-0.5	0.04
GW	361	1	14.37	2.75	0.5	14.37	2.2	0.9	0.04
GW	362	1	14.37	2.75	-0.5	14.37	2.2	-0.9	0.04
GW	363	3	14.37	2.75	0.5	14.37	1.56	0.5	0.04
GW	364	3	14.37	2.75	-0.5	14.37	1.56	-0.5	0.04
GW	365	1	14.37	2.75	0.5	14.37	3.2	0.82	0.04
GW	366	3	14.37	3.2	0.82	14.37	3.9	1.15	0.04
GW	367	3	14.37	3.9	1.15	14.37	5.05	1.55	0.04
GW	368	3	14.37	5.05	1.55	14.37	6.2	1.9	0.04
GW	369	1	14.37	6.2	1.9	14.37	6.12	2.17	0.04
GW	370	1	14.37	2.75	1.15	14.37	3.2	0.82	0.04
GW	371	1	14.37	2.2	0.9	14.37	2.75	1.15	0.04
GW	372	3	14.37	2.2	0.9	14.37	1.56	0.5	0.04
GW	373	3	14.37	4.97	1.88	14.37	6.12	2.17	0.04
GW	374	1	14.37	4.97	1.88	14.37	5.05	1.55	0.04
GW	375	1	14.37	3.9	1.15	14.37	3.8	1.55	0.04
GW	376	3	14.37	3.8	1.55	14.37	4.97	1.88	0.04
GW	377	3	14.37	2.75	1.15	14.37	3.8	1.55	0.04
GW	378	1	14.37	2.75	-0.5	14.37	3.2	-0.82	0.04
GW	379	3	14.37	3.2	-0.82	14.37	3.9	-1.15	0.04
GW	380	3	14.37	3.9	-1.15	14.37	5.05	-1.55	0.04
GW	381	3	14.37	5.05	-1.55	14.37	6.2	-1.9	0.04
GW	382	1	14.37	6.2	-1.9	14.37	6.12	-2.17	0.04
GW	383	1	14.37	2.75	-1.15	14.37	3.2	-0.82	0.04
GW	384	1	14.37	2.2	-0.9	14.37	2.75	-1.15	0.04
GW	385	3	14.37	2.2	-0.9	14.37	1.56	-0.5	0.04
GW	386	3	14.37	4.97	-1.88	14.37	6.12	-2.17	0.04
GW	387	1	14.37	4.97	-1.88	14.37	5.05	-1.55	0.04
GW	388	1	14.37	3.9	-1.15	14.37	3.8	-1.55	0.04
GW	389	3	14.37	3.8	-1.55	14.37	4.97	-1.88	0.04
GW	390	3	14.37	2.75	-1.15	14.37	3.8	-1.55	0.04
GW	391	3	14.37	-2.75	-0.5	14.37	-2.75	0.5	0.04
GW	392	1	14.37	-1.56	-0.5	14.37	-1.56	0	0.04
GW	393	1	14.37	-1.56	0	14.37	-1.56	0.5	0.04
GW	394	3	14.37	-1.56	0	14.37	-2.75	-0.5	0.04
GW	395	3	14.37	-1.56	0	14.37	-2.75	0.5	0.04
GW	396	1	14.37	-2.75	-0.5	14.37	-2.2	-0.9	0.04
GW	397	1	14.37	-2.75	0.5	14.37	-2.2	0.9	0.04
GW	398	3	14.37	-2.75	-0.5	14.37	-1.56	-0.5	0.04
GW	399	3	14.37	-2.75	0.5	14.37	-1.56	0.5	0.04
GW	400	1	14.37	-2.75	-0.5	14.37	-3.2	-0.82	0.04
GW	401	3	14.37	-3.2	-0.82	14.37	-3.9	-1.15	0.04
GW	402	3	14.37	-3.9	-1.15	14.37	-5.05	-1.55	0.04
GW	403	3	14.37	-5.05	-1.55	14.37	-6.2	-1.9	0.04
GW	404	1	14.37	-6.2	-1.9	14.37	-6.12	-2.17	0.04
GW	405	1	14.37	-2.75	-1.15	14.37	-3.2	-0.82	0.04
GW	406	1	14.37	-2.2	-0.9	14.37	-2.75	-1.15	0.04
GW	407	3	14.37	-2.2	-0.9	14.37	-1.56	-0.5	0.04
GW	408	3	14.37	-4.97	-1.88	14.37	-6.12	-2.17	0.04
GW	409	1	14.37	-4.97	-1.88	14.37	-5.05	-1.55	0.04
GW	410	1	14.37	-3.9	-1.15	14.37	-3.8	-1.55	0.04
GW	411	3	14.37	-3.8	-1.55	14.37	-4.97	-1.88	0.04
GW	412	3	14.37	-2.75	-1.15	14.37	-3.8	-1.55	0.04
GW	413	1	14.37	-2.75	0.5	14.37	-3.2	0.82	0.04
GW	414	3	14.37	-3.2	0.82	14.37	-3.9	1.15	0.04
GW	415	3	14.37	-3.9	1.15	14.37	-5.05	1.55	0.04
GW	416	3	14.37	-5.05	1.55	14.37	-6.2	1.9	0.04
GW	417	1	14.37	-6.2	1.9	14.37	-6.12	2.17	0.04
GW	418	1	14.37	-2.75	1.15	14.37	-3.2	0.82	0.04
GW	419	1	14.37	-2.2	0.9	14.37	-2.75	1.15	0.04
GW	420	3	14.37	-2.2	0.9	14.37	-1.56	0.5	0.04
GW	421	3	14.37	-4.97	1.88	14.37	-6.12	2.17	0.04
GW	422	1	14.37	-4.97	1.88	14.37	-5.05	1.55	0.04
GW	423	1	14.37	-3.9	1.15	14.37	-3.8	1.55	0.04
GW	424	3	14.37	-3.8	1.55	14.37	-4.97	1.88	0.04
GW	425	3	14.37	-2.75	1.15	14.37	-3.8	1.55	0.04
GW	426	3	16.5	2.75	0.5	16.5	2.75	-0.5	0.04
GW	427	1	16.5	1.56	0.5	16.5	1.56	0	0.04
GW	428	1	16.5	1.56	0	16.5	1.56	-0.5	0.04
GW	429	3	16.5	1.56	0	16.5	2.75	0.5	0.04
GW	430	3	16.5	1.56	0	16.5	2.75	-0.5	0.04
GW	431	1	16.5	2.75	0.5	16.5	2.2	0.9	0.04
GW	432	1	16.5	2.75	-0.5	16.5	2.2	-0.9	0.04
GW	433	3	16.5	2.75	0.5	16.5	1.56	0.5	0.04
GW	434	3	16.5	2.75	-0.5	16.5	1.56	-0.5	0.04
GW	435	1	16.5	2.75	0.5	16.5	3.2	0.82	0.04
GW	436	3	16.5	3.2	0.82	16.5	3.9	1.15	0.04
GW	437	3	16.5	3.9	1.15	16.5	5.05	1.55	0.04
GW	438	3	16.5	5.05	1.55	16.5	6.2	1.9	0.04
GW	439	1	16.5	6.2	1.9	16.5	6.12	2.17	0.04
GW	440	1	16.5	2.75	1.15	16.5	3.2	0.82	0.04
GW	441	1	16.5	2.2	0.9	16.5	2.75	1.15	0.04
GW	442	3	16.5	2.2	0.9	16.5	1.56	0.5	0.04
GW	443	3	16.5	4.97	1.88	16.5	6.12	2.17	0.04
GW	444	1	16.5	4.97	1.88	16.5	5.05	1.55	0.04
GW	445	1	16.5	3.9	1.15	16.5	3.8	1.55	0.04
GW	446	3	16.5	3.8	1.55	16.5	4.97	1.88	0.04
GW	447	3	16.5	2.75	1.15	16.5	3.8	1.55	0.04
GW	448	1	16.5	2.75	-0.5	16.5	3.2	-0.82	0.04
GW	449	3	16.5	3.2	-0.82	16.5	3.9	-1.15	0.04
GW	450	3	16.5	3.9	-1.15	16.5	5.05	-1.55	0.04
GW	451	3	16.5	5.05	-1.55	16.5	6.2	-1.9	0.04
GW	452	1	16.5	6.2	-1.9	16.5	6.12	-2.17	0.04
GW	453	1	16.5	2.75	-1.15	16.5	3.2	-0.82	0.04
GW	454	1	16.5	2.2	-0.9	16.5	2.75	-1.15	0.04
GW	455	3	16.5	2.2	-0.9	16.5	1.56	-0.5	0.04
GW	456	3	16.5	4.97	-1.88	16.5	6.12	-2.17	0.04
GW	457	1	16.5	4.97	-1.88	16.5	5.05	-1.55	0.04
GW	458	1	16.5	3.9	-1.15	16.5	3.8	-1.55	0.04
GW	459	3	16.5	3.8	-1.55	16.5	4.97	-1.88	0.04
GW	460	3	16.5	2.75	-1.15	16.5	3.8	-1.55	0.04
GW	461	3	16.5	-2.75	-0.5	16.5	-2.75	0.5	0.04
GW	462	1	16.5	-1.56	-0.5	16.5	-1.56	0	0.04
GW	463	1	16.5	-1.56	0	16.5	-1.56	0.5	0.04
GW	464	3	16.5	-1.56	0	16.5	-2.75	-0.5	0.04
GW	465	3	16.5	-1.56	0	16.5	-2.75	0.5	0.04
GW	466	1	16.5	-2.75	-0.5	16.5	-2.2	-0.9	0.04
GW	467	1	16.5	-2.75	0.5	16.5	-2.2	0.9	0.04
GW	468	3	16.5	-2.75	-0.5	16.5	-1.56	-0.5	0.04
GW	469	3	16.5	-2.75	0.5	16.5	-1.56	0.5	0.04
GW	470	1	16.5	-2.75	-0.5	16.5	-3.2	-0.82	0.04
GW	471	3	16.5	-3.2	-0.82	16.5	-3.9	-1.15	0.04
GW	472	3	16.5	-3.9	-1.15	16.5	-5.05	-1.55	0.04
GW	473	3	16.5	-5.05	-1.55	16.5	-6.2	-1.9	0.04
GW	474	1	16.5	-6.2	-1.9	16.5	-6.12	-2.17	0.04
GW	475	1	16.5	-2.75	-1.15	16.5	-3.2	-0.82	0.04
GW	476	1	16.5	-2.2	-0.9	16.5	-2.75	-1.15	0.04
GW	477	3	16.5	-2.2	-0.9	16.5	-1.56	-0.5	0.04
GW	478	3	16.5	-4.97	-1.88	16.5	-6.12	-2.17	0.04
GW	479	1	16.5	-4.97	-1.88	16.5	-5.05	-1.55	0.04
GW	480	1	16.5	-3.9	-1.15	16.5	-3.8	-1.55	0.04
GW	481	3	16.5	-3.8	-1.55	16.5	-4.97	-1.88	0.04
GW	482	3	16.5	-2.75	-1.15	16.5	-3.8	-1.55	0.04
GW	483	1	16.5	-2.75	0.5	16.5	-3.2	0.82	0.04
GW	484	3	16.5	-3.2	0.82	16.5	-3.9	1.15	0.04
GW	485	3	16.5	-3.9	1.15	16.5	-5.05	1.55	0.04
GW	486	3	16.5	-5.05	1.55	16.5	-6.2	1.9	0.04
GW	487	1	16.5	-6.2	1.9	16.5	-6.12	2.17	0.04
GW	488	1	16.5	-2.75	1.15	16.5	-3.2	0.82	0.04
GW	489	1	16.5	-2.2	0.9	16.5	-2.75	1.15	0.04
GW	490	3	16.5	-2.2	0.9	16.5	-1.56	0.5	0.04
GW	491	3	16.5	-4.97	1.88	16.5	-6.12	2.17	0.04
GW	492	1	16.5	-4.97	1.88	16.5	-5.05	1.55	0.04
GW	493	1	16.5	-3.9	1.15	16.5	-3.8	1.55	0.04
GW	494	3	16.5	-3.8	1.55	16.5	-4.97	1.88	0.04
GW	495	3	16.5	-2.75	1.15	16.5	-3.8	1.55	0.04
GW	496	3	18.87	2.75	0.5	18.87	2.75	-0.5	0.04
GW	497	1	18.87	1.56	0.5	18.87	1.56	0	0.04
GW	498	1	18.87	1.56	0	18.87	1.56	-0.5	0.04
GW	499	3	18.87	1.56	0	18.87	2.75	0.5	0.04
GW	500	3	18.87	1.56	0	18.87	2.75	-0.5	0.04
GW	501	1	18.87	2.75	0.5	18.87	2.2	0.9	0.04
GW	502	1	18.87	2.75	-0.5	18.87	2.2	-0.9	0.04
GW	503	3	18.87	2.75	0.5	18.87	1.56	0.5	0.04
GW	504	3	18.87	2.75	-0.5	18.87	1.56	-0.5	0.04
GW	505	1	18.87	2.75	0.5	18.87	3.2	0.82	0.04
GW	506	3	18.87	3.2	0.82	18.87	3.9	1.15	0.04
GW	507	3	18.87	3.9	1.15	18.87	5.05	1.55	0.04
GW	508	3	18.87	5.05	1.55	18.87	6.2	1.9	0.04
GW	509	1	18.87	6.2	1.9	18.87	6.12	2.17	0.04
GW	510	1	18.87	2.75	1.15	18.87	3.2	0.82	0.04
GW	511	1	18.87	2.2	0.9	18.87	2.75	1.15	0.04
GW	512	3	18.87	2.2	0.9	18.87	1.56	0.5	0.04
GW	513	3	18.87	4.97	1.88	18.87	6.12	2.17	0.04
GW	514	1	18.87	4.97	1.88	18.87	5.05	1.55	0.04
GW	515	1	18.87	3.9	1.15	18.87	3.8	1.55	0.04
GW	516	3	18.87	3.8	1.55	18.87	4.97	1.88	0.04
GW	517	3	18.87	2.75	1.15	18.87	3.8	1.55	0.04
GW	518	1	18.87	2.75	-0.5	18.87	3.2	-0.82	0.04
GW	519	3	18.87	3.2	-0.82	18.87	3.9	-1.15	0.04
GW	520	3	18.87	3.9	-1.15	18.87	5.05	-1.55	0.04
GW	521	3	18.87	5.05	-1.55	18.87	6.2	-1.9	0.04
GW	522	1	18.87	6.2	-1.9	18.87	6.12	-2.17	0.04
GW	523	1	18.87	2.75	-1.15	18.87	3.2	-0.82	0.04
GW	524	1	18.87	2.2	-0.9	18.87	2.75	-1.15	0.04
GW	525	3	18.87	2.2	-0.9	18.87	1.56	-0.5	0.04
GW	526	3	18.87	4.97	-1.88	18.87	6.12	-2.17	0.04
GW	527	1	18.87	4.97	-1.88	18.87	5.05	-1.55	0.04
GW	528	1	18.87	3.9	-1.15	18.87	3.8	-1.55	0.04
GW	529	3	18.87	3.8	-1.55	18.87	4.97	-1.88	0.04
GW	530	3	18.87	2.75	-1.15	18.87	3.8	-1.55	0.04
GW	531	3	18.87	-2.75	-0.5	18.87	-2.75	0.5	0.04
GW	532	1	18.87	-1.56	-0.5	18.87	-1.56	0	0.04
GW	533	1	18.87	-1.56	0	18.87	-1.56	0.5	0.04
GW	534	3	18.87	-1.56	0	18.87	-2.75	-0.5	0.04
GW	535	3	18.87	-1.56	0	18.87	-2.75	0.5	0.04
GW	536	1	18.87	-2.75	-0.5	18.87	-2.2	-0.9	0.04
GW	537	1	18.87	-2.75	0.5	18.87	-2.2	0.9	0.04
GW	538	3	18.87	-2.75	-0.5	18.87	-1.56	-0.5	0.04
GW	539	3	18.87	-2.75	0.5	18.87	-1.56	0.5	0.04
GW	540	1	18.87	-2.75	-0.5	18.87	-3.2	-0.82	0.04
GW	541	3	18.87	-3.2	-0.82	18.87	-3.9	-1.15	0.04
GW	542	3	18.87	-3.9	-1.15	18.87	-5.05	-1.55	0.04
GW	543	3	18.87	-5.05	-1.55	18.87	-6.2	-1.9	0.04
GW	544	1	18.87	-6.2	-1.9	18.87	-6.12	-2.17	0.04
GW	545	1	18.87	-2.75	-1.15	18.87	-3.2	-0.82	0.04
GW	546	1	18.87	-2.2	-0.9	18.87	-2.75	-1.15	0.04
GW	547	3	18.87	-2.2	-0.9	18.87	-1.56	-0.5	0.04
GW	548	3	18.87	-4.97	-1.88	18.87	-6.12	-2.17	0.04
GW	549	1	18.87	-4.97	-1.88	18.87	-5.05	-1.55	0.04
GW	550	1	18.87	-3.9	-1.15	18.87	-3.8	-1.55	0.04
GW	551	3	18.87	-3.8	-1.55	18.87	-4.97	-1.88	0.04
GW	552	3	18.87	-2.75	-1.15	18.87	-3.8	-1.55	0.04
GW	553	1	18.87	-2.75	0.5	18.87	-3.2	0.82	0.04
GW	554	3	18.87	-3.2	0.82	18.87	-3.9	1.15	0.04
GW	555	3	18.87	-3.9	1.15	18.87	-5.05	1.55	0.04
GW	556	3	18.87	-5.05	1.55	18.87	-6.2	1.9	0.04
GW	557	1	18.87	-6.2	1.9	18.87	-6.12	2.17	0.04
GW	558	1	18.87	-2.75	1.15	18.87	-3.2	0.82	0.04
GW	559	1	18.87	-2.2	0.9	18.87	-2.75	1.15	0.04
GW	560	3	18.87	-2.2	0.9	18.87	-1.56	0.5	0.04
GW	561	3	18.87	-4.97	1.88	18.87	-6.12	2.17	0.04
GW	562	1	18.87	-4.97	1.88	18.87	-5.05	1.55	0.04
GW	563	1	18.87	-3.9	1.15	18.87	-3.8	1.55	0.04
GW	564	3	18.87	-3.8	1.55	18.87	-4.97	1.88	0.04
GW	565	3	18.87	-2.75	1.15	18.87	-3.8	1.55	0.04
GW	566	3	21.2	2.75	0.5	21.2	2.75	-0.5	0.04
GW	567	1	21.2	1.56	0.5	21.2	1.56	0	0.04
GW	568	1	21.2	1.56	0	21.2	1.56	-0.5	0.04
GW	569	3	21.2	1.56	0	21.2	2.75	0.5	0.04
GW	570	3	21.2	1.56	0	21.2	2.75	-0.5	0.04
GW	571	1	21.2	2.75	0.5	21.2	2.2	0.9	0.04
GW	572	1	21.2	2.75	-0.5	21.2	2.2	-0.9	0.04
GW	573	3	21.2	2.75	0.5	21.2	1.56	0.5	0.04
GW	574	3	21.2	2.75	-0.5	21.2	1.56	-0.5	0.04
GW	575	1	21.2	2.75	0.5	21.2	3.2	0.82	0.04
GW	576	3	21.2	3.2	0.82	21.2	3.9	1.15	0.04
GW	577	3	21.2	3.9	1.15	21.2	5.05	1.55	0.04
GW	578	3	21.2	5.05	1.55	21.2	6.2	1.9	0.04
GW	579	1	21.2	6.2	1.9	21.2	6.12	2.17	0.04
GW	580	1	21.2	2.75	1.15	21.2	3.2	0.82	0.04
GW	581	1	21.2	2.2	0.9	21.2	2.75	1.15	0.04
GW	582	3	21.2	2.2	0.9	21.2	1.56	0.5	0.04
GW	583	3	21.2	4.97	1.88	21.2	6.12	2.17	0.04
GW	584	1	21.2	4.97	1.88	21.2	5.05	1.55	0.04
GW	585	1	21.2	3.9	1.15	21.2	3.8	1.55	0.04
GW	586	3	21.2	3.8	1.55	21.2	4.97	1.88	0.04
GW	587	3	21.2	2.75	1.15	21.2	3.8	1.55	0.04
GW	588	1	21.2	2.75	-0.5	21.2	3.2	-0.82	0.04
GW	589	3	21.2	3.2	-0.82	21.2	3.9	-1.15	0.04
GW	590	3	21.2	3.9	-1.15	21.2	5.05	-1.55	0.04
GW	591	3	21.2	5.05	-1.55	21.2	6.2	-1.9	0.04
GW	592	1	21.2	6.2	-1.9	21.2	6.12	-2.17	0.04
GW	593	1	21.2	2.75	-1.15	21.2	3.2	-0.82	0.04
GW	594	1	21.2	2.2	-0.9	21.2	2.75	-1.15	0.04
GW	595	3	21.2	2.2	-0.9	21.2	1.56	-0.5	0.04
GW	596	3	21.2	4.97	-1.88	21.2	6.12	-2.17	0.04
GW	597	1	21.2	4.97	-1.88	21.2	5.05	-1.55	0.04
GW	598	1	21.2	3.9	-1.15	21.2	3.8	-1.55	0.04
GW	599	3	21.2	3.8	-1.55	21.2	4.97	-1.88	0.04
GW	600	3	21.2	2.75	-1.15	21.2	3.8	-1.55	0.04
GW	601	3	21.2	-2.75	-0.5	21.2	-2.75	0.5	0.04
GW	602	1	21.2	-1.56	-0.5	21.2	-1.56	0	0.04
GW	603	1	21.2	-1.56	0	21.2	-1.56	0.5	0.04
GW	604	3	21.2	-1.56	0	21.2	-2.75	-0.5	0.04
GW	605	3	21.2	-1.56	0	21.2	-2.75	0.5	0.04
GW	606	1	21.2	-2.75	-0.5	21.2	-2.2	-0.9	0.04
GW	607	1	21.2	-2.75	0.5	21.2	-2.2	0.9	0.04
GW	608	3	21.2	-2.75	-0.5	21.2	-1.56	-0.5	0.04
GW	609	3	21.2	-2.75	0.5	21.2	-1.56	0.5	0.04
GW	610	1	21.2	-2.75	-0.5	21.2	-3.2	-0.82	0.04
GW	611	3	21.2	-3.2	-0.82	21.2	-3.9	-1.15	0.04
GW	612	3	21.2	-3.9	-1.15	21.2	-5.05	-1.55	0.04
GW	613	3	21.2	-5.05	-1.55	21.2	-6.2	-1.9	0.04
GW	614	1	21.2	-6.2	-1.9	21.2	-6.12	-2.17	0.04
GW	615	1	21.2	-2.75	-1.15	21.2	-3.2	-0.82	0.04
GW	616	1	21.2	-2.2	-0.9	21.2	-2.75	-1.15	0.04
GW	617	3	21.2	-2.2	-0.9	21.2	-1.56	-0.5	0.04
GW	618	3	21.2	-4.97	-1.88	21.2	-6.12	-2.17	0.04
GW	619	1	21.2	-4.97	-1.88	21.2	-5.05	-1.55	0.04
GW	620	1	21.2	-3.9	-1.15	21.2	-3.8	-1.55	0.04
GW	621	3	21.2	-3.8	-1.55	21.2	-4.97	-1.88	0.04
GW	622	3	21.2	-2.75	-1.15	21.2	-3.8	-1.55	0.04
GW	623	1	21.2	-2.75	0.5	21.2	-3.2	0.82	0.04
GW	624	3	21.2	-3.2	0.82	21.2	-3.9	1.15	0.04
GW	625	3	21.2	-3.9	1.15	21.2	-5.05	1.55	0.04
GW	626	3	21.2	-5.05	1.55	21.2	-6.2	1.9	0.04
GW	627	1	21.2	-6.2	1.9	21.2	-6.12	2.17	0.04
GW	628	1	21.2	-2.75	1.15	21.2	-3.2	0.82	0.04
GW	629	1	21.2	-2.2	0.9	21.2	-2.75	1.15	0.04
GW	630	3	21.2	-2.2	0.9	21.2	-1.56	0.5	0.04
GW	631	3	21.2	-4.97	1.88	21.2	-6.12	2.17	0.04
GW	632	1	21.2	-4.97	1.88	21.2	-5.05	1.55	0.04
GW	633	1	21.2	-3.9	1.15	21.2	-3.8	1.55	0.04
GW	634	3	21.2	-3.8	1.55	21.2	-4.97	1.88	0.04
GW	635	3	21.2	-2.75	1.15	21.2	-3.8	1.55	0.04
GW	636	3	23.75	2.75	0.5	23.75	2.75	-0.5	0.04
GW	637	1	23.75	1.56	0.5	23.75	1.56	0	0.04
GW	638	1	23.75	1.56	0	23.75	1.56	-0.5	0.04
GW	639	3	23.75	1.56	0	23.75	2.75	0.5	0.04
GW	640	3	23.75	1.56	0	23.75	2.75	-0.5	0.04
GW	641	1	23.75	2.75	0.5	23.75	2.2	0.9	0.04
GW	642	1	23.75	2.75	-0.5	23.75	2.2	-0.9	0.04
GW	643	3	23.75	2.75	0.5	23.75	1.56	0.5	0.04
GW	644	3	23.75	2.75	-0.5	23.75	1.56	-0.5	0.04
GW	645	1	23.75	2.75	0.5	23.75	3.2	0.82	0.04
GW	646	3	23.75	3.2	0.82	23.75	3.9	1.15	0.04
GW	647	3	23.75	3.9	1.15	23.75	5.05	1.55	0.04
GW	648	3	23.75	5.05	1.55	23.75	6.2	1.9	0.04
GW	649	1	23.75	6.2	1.9	23.75	6.12	2.17	0.04
GW	650	1	23.75	2.75	1.15	23.75	3.2	0.82	0.04
GW	651	1	23.75	2.2	0.9	23.75	2.75	1.15	0.04
GW	652	3	23.75	2.2	0.9	23.75	1.56	0.5	0.04
GW	653	3	23.75	4.97	1.88	23.75	6.12	2.17	0.04
GW	654	1	23.75	4.97	1.88	23.75	5.05	1.55	0.04
GW	655	1	23.75	3.9	1.15	23.75	3.8	1.55	0.04
GW	656	3	23.75	3.8	1.55	23.75	4.97	1.88	0.04
GW	657	3	23.75	2.75	1.15	23.75	3.8	1.55	0.04
GW	658	1	23.75	2.75	-0.5	23.75	3.2	-0.82	0.04
GW	659	3	23.75	3.2	-0.82	23.75	3.9	-1.15	0.04
GW	660	3	23.75	3.9	-1.15	23.75	5.05	-1.55	0.04
GW	661	3	23.75	5.05	-1.55	23.75	6.2	-1.9	0.04
GW	662	1	23.75	6.2	-1.9	23.75	6.12	-2.17	0.04
GW	663	1	23.75	2.75	-1.15	23.75	3.2	-0.82	0.04
GW	664	1	23.75	2.2	-0.9	23.75	2.75	-1.15	0.04
GW	665	3	23.75	2.2	-0.9	23.75	1.56	-0.5	0.04