CM Stack example 
CM GW 6 21 -285 -210.79 840 -285 210.79 840 0.3335 
CM GW 7 21 -213 -198.13 840 -213 198.13 840 0.34
CM GW 8 21 -125 -196.43 840 -125 196.43 840 0.341
CM GW 9 21 74 -193.64 840 74 193.64 840 0.343
CM GW 10 21 285 -186.62 840 285 186.62 840 0.347
CE
GW	1	21	-285	-210.79	480	-285	210.79	480	0.3335
GW	2	21	-213	-198.13	480	-213	198.13	480	0.34
GW	3	21	-125	-196.43	480	-125	196.43	480	0.341
GW	4	21	74	-193.64	480	74	193.64	480	0.343
GW	5	21	285	-186.62	480	285	186.62	480	0.347
GM	5	1	0	0	0	0	0	360	0	'Copy and move above wires
GS	0	0	0.0254
GE	1
LD	5	0	0	0	30800000
GN	2	0	0	0	13	0.005
EK
EX	0	2	11	0	1	0	0	0
EX	0	7	11	0	1	0	0	0
FR	0	0	0	0	14.175	0
EN
