CM T2FD Resistively Loaded Dipole, by K6STI
CM Converted with 4nec2 on 22-apr-02
CM 
CM 
CM 
CM 
CM 
CE
GW	1	21	0	-23.5	0	0	23.5	0	#12
GW	2	21	0	-23.5	1.5	0	23.5	1.5	#12
GW	3	1	0	-23.5	0	0	-23.5	1.5	#12
GW	4	1	0	23.5	0	0	23.5	1.5	#12
GS	0	0	0.3048
GE	0
LD	1	2	11	11	400	0
GN	-1
EK
EX	0	1	11	0	1	0	0	0
FR	0	0	0	0	21	0
EN
