CM  Vertical 14 -28 MHz, 75 Ohm feed, By UA3SFH
CE
SY len=6.5
SY Q=200, L=2.8uH
SY C=28pF
GW	1	50	0	0	.05	0	0	len	.006
GW	2	1	0	0	0	0	0	.05	.006
GE	1
LD	6	2	1	1	Q	L
LD	0	2	1	1	0	0	C
GN	3	0	0	0	13	0.005
EK
EX	0	2	1	0	1.0	0	0
FR	0	0	0	0	14.15	0
EN
