CM 
CE
SY freq=7.1
SY L=3
SY W=2
SY H=5
SY R=791.8043
GW	1	1	L/2	0	H-0.05	L/2	0	H+0.05	0.001
GW	2	1	-L/2	0	H-0.05	-L/2	0	H+0.05	0.001
GW	3	9	-L/2	0	H+0.05	0	0	H+W/2	0.001
GW	4	9	0	0	H+W/2	L/2	0	H+0.05	0.001
GW	5	9	-L/2	0	H-0.05	0	0	H-W/2	0.001
GW	6	9	0	0	H-W/2	L/2	0	H-0.05	0.001
GE	1
LD	5	0	0	0	58000000
LD	0	2	1	0	R
GN	2	0	0	0	17	0.015
EK
EX	0	1	1	0	1	0	0
FR	0	0	0	0	freq	0
EN
