CM 
CE
SY freq=7.1
SY L=2.661294
SY W=1
SY H=20
SY R=669.1738
GW	1	1	L/2	-0.05	H	L/2	0.05	H	0.001
GW	2	1	-L/2	-0.05	H	-L/2	0.05	H	0.001
GW	3	9	-L/2	0.05	H	0	W/2	H	0.001
GW	4	9	0	W/2	H	L/2	0.05	H	0.001
GW	5	9	-L/2	-0.05	H	0	-W/2	H	0.001
GW	6	9	0	-W/2	H	L/2	-0.05	H	0.001
GE	1
LD	5	0	0	0	58000000
LD	0	2	1	0	R
GN	2	0	0	0	17	0.015
EK
EX	0	1	1	0	1	0	0
FR	0	0	0	0	freq	0
EN
