CM 
CE
SY freq=7.1
SY L=3
SY W=2
SY H=20
SY g=0.05
SY D=3
SY theta=32
SY tau=D*cos(theta)
SY phase=tau*freq*360/300
SY R=560
GW	1	9	W	L/2	H	W	-L/2	H	0.001
GW	2	1	0	0.1	H	0	-0.1	H	0.001
GW	3	9	0	0.1	H	W	L/2	H	0.001
GW	4	9	0	-0.1	H	W	-L/2	H	0.001
GE	1
LD	5	0	0	0	58000000
LD	0	2	1	0	R
GN	2	0	0	0	17	0.015
EK
EX	0	1	5	0	1	0	0
FR	0	0	0	0	freq	0
EN
