CM 
CE
SY freq=7.1
SY L=1.5
SY W=3
SY H=20
SY D=3
SY theta=32
SY tau=D*cos(theta)
SY phase=tau*freq*360/300
GW	1	9	L/2	W/2	H	L/2	-W/2	H	0.001
GW	2	9	-L/2	W/2	H	-L/2	-W/2	H	0.001
GW	3	4	L/2	W/2	H	-L/2	W/2	H	0.001
GW	4	4	L/2	-W/2	H	-L/2	-W/2	H	0.001
GW	5	1	0	-0.1	H	0	0.1	H	0.001
GE	1
LD	5	0	0	0	58000000
GN	2	0	0	0	17	0.015
EK
EX	0	5	1	0	1	0	0
TL	1	5	5	1	300	L/2	0	0	0	0
TL	2	5	5	1	-300	L/2	0	0	0	0
FR	0	0	0	0	freq	0
EN
