CM 
CE
SY freq=7.1
SY W=1.5
SY H=20
GW	1	7	W/2	0	H	W/2	0	H+W	0.001
GW	2	7	-W/2	0	H	-W/2	0	H+W	0.001
GW	3	7	W/2	0	H+W	-W/2	0	H+W	0.001
GW	4	7	W/2	0	H	-W/2	0	H	0.001
GE	1
LD	5	0	0	0	58000000
GN	2	0	0	0	17	0.015
EK
EX	0	1	4	0	1	0	0
EX	0	2	4	0	-1	0	0
EX	0	3	4	0	1	0	0
EX	0	4	4	0	-1	0	0
FR	0	0	0	0	freq	0
EN
