CM 
CE
SY freq=7.1
SY L=3
SY W=1
SY H=20
SY D=4
GW	1	9	-W/2	-L/2	H	-W/2	L/2	H	0.004
GW	2	3	-W/2	-L/2	H	W/2	-L/2	H	0.001
GW	3	9	W/2	-L/2	H	W/2	L/2	H	0.004
GW	4	3	-W/2	L/2	H	W/2	L/2	H	0.001
GW	5	9	-W/2+D	-L/2	H	-W/2+D	L/2	H	0.004
GW	6	3	-W/2+D	-L/2	H	W/2+D	-L/2	H	0.001
GW	7	9	W/2+D	-L/2	H	W/2+D	L/2	H	0.004
GW	8	3	-W/2+D	L/2	H	W/2+D	L/2	H	0.001
GE	1
LD	5	0	0	0	58000000
GN	2	0	0	0	17	0.015
EK
EX	0	1	5	0	1	0	0
EX	0	3	5	0	-1	0	0
EX	0	5	5	0	-1	0	0
EX	0	7	5	0	1	0	0
FR	0	0	0	0	freq	0
EN
