CM 
CE
SY freq=7.1
SY L=4
SY W=0.2
SY H=20
SY D=3
SY theta=0
SY tau=D*cos(theta)
SY phase=tau*freq*360/300
SY TL=3
GW	1	9	0	L/2	H-W/2	0	-L/2	H-W/2	0.001
GW	2	9	0	L/2	H+W/2	0	-L/2	H+W/2	0.001
GW	3	1	0	L/2	H+W/2	0	L/2	H-W/2	0.001
GW	4	1	0	-L/2	H+W/2	0	-L/2	H-W/2	0.001
GM	4	1	0	0	0	D	0	0	1
GE	1
LD	5	0	0	0	58000000
GN	2	0	0	0	17	0.015
EK
EX	0	1	5	0	1	0	0
TL	1	5	5	5	-300	0	0	0	0	0
FR	0	0	0	0	freq	0
EN
