CM 
CE
SY freq=7.1
SY W=1
SY H=20
SY D=2
SY theta=30
SY tau=D*cos(theta)
SY ph=tau*freq*360/300
GW	1	7	0	-W/2	H	0	W/2	H	0.01
GW	2	7	0	W/2	H	W	W/2	H	0.01
GW	3	7	W	W/2	H	W	-W/2	H	0.01
GW	4	7	W	-W/2	H	0	-W/2	H	0.01
GW	5	7	D	-W/2	H	D	W/2	H	0.01
GW	6	7	D	W/2	H	W+D	W/2	H	0.01
GW	7	7	W+D	W/2	H	W+D	-W/2	H	0.01
GW	8	7	W+D	-W/2	H	D	-W/2	H	0.01
GE	1
LD	5	0	0	0	58000000
GN	2	0	0	0	17	0.015
EK
EX	0	1	4	0	1	0	0
EX	0	5	4	0	cos(ph+180)	sin(ph+180)	0
FR	0	0	0	0	freq	0
EN
