CM 
CE
SY freq=7.1
SY L=2
SY W=2
SY H=20
SY D=L
SY theta=32
SY tau=D*cos(theta)
SY ph=tau*freq*360/300
GW	1	9	0	W/2	H	L	W/2	H	0.001
GW	2	9	L	W/2	H	2*L	W/2	H	0.001
GW	3	9	0	-W/2	H	L	-W/2	H	0.001
GW	4	9	L	-W/2	H	2*L	-W/2	H	0.001
GW	5	9	0	W/2	H	0	-W/2	H	0.001
GW	6	9	L	W/2	H	L	-W/2	H	0.001
GW	7	9	2*L	W/2	H	2*L	-W/2	H	0.001
GE	1
LD	5	0	0	0	58000000
GN	2	0	0	0	17	0.015
EK
EX	0	1	5	0	1	0	0
EX	0	2	5	0	cos(ph+180)	sin(ph+180)	0
FR	0	0	0	0	freq	0
EN
