CM 
CE
SY freq=7.1
SY L=2
SY W=3
SY H=20
SY D=3
SY theta=0
SY tau=D*cos(theta)
SY phase=tau*freq*360/300
SY TL=3
GW	1	9	L/2	W/2	H	L/2	-W/2	H	0.001
GW	2	9	-L/2	W/2	H	-L/2	-W/2	H	0.001
GW	3	4	L/2	W/2	H	-L/2	W/2	H	0.001
GW	4	4	L/2	-W/2	H	-L/2	-W/2	H	0.001
GW	5	1	0	-0.1	H	0	0.1	H	0.001
GW	6	1	0	-0.1	H-1	0	0.1	H-1	0.001
GM	6	1	0	0	0	D	0	0	1
GM	0	0	0	0	0	-D/2	0	0	1
GE	1
LD	5	0	0	0	58000000
GN	2	0	0	0	17	0.015
EK
EX	0	6	1	0	1	0	0
EX	0	12	1	0	1	0	0
TL	1	5	5	1	300	0	0	0	0	0
TL	2	5	5	1	-300	0	0	0	0	0
TL	5	1	6	1	300	0	0	0	0	0
TL	7	5	11	1	300	0	0	0	0	0
TL	8	5	11	1	-300	0	0	0	0	0
TL	11	1	12	1	300	0	0	0	0	0
FR	0	0	0	0	freq	0
EN
