CM 
CE
SY freq=1.8
SY L=4
SY H=4
SY g=0.1
SY D=8
SY theta=30
SY tau=D*cos(theta)
SY phase=tau*freq*360/300
GW	1	9	L/2	0	g	-L/2	0	g	0.001
GW	2	9	L/2	0	g	L/2	0	g+H	0.001
GW	3	9	-L/2	0	g	-L/2	0	g+H	0.001
GW	4	9	L/2	0	g+H	-L/2	0	g+H	0.001
GM	4	1	0	0	0	D	0	0	1
GE	1
LD	5	0	0	0	58000000
GN	2	0	0	0	17	0.015
EK
EX	0	2	5	0	1	0	0
EX	0	6	5	0	cos(phase+180)	sin(phase+180)	0
FR	0	0	0	0	freq	0
EN
