CM 
CE
SY freq=7.1
SY H=5
SY L=11.08057
SY R=48.37173
SY D=5
SY theta=5
SY tau=D*cos(theta)
SY ph=tau*freq*360/300
GW	1	50	0	0	0	0	0	H	0.001
GW	2	50	D	0	0	D	0	H	0.001
GE	1
LD	5	0	0	0	58000000
LD	0	1	2	0	R	L*1e-6
LD	0	2	2	0	R	L*1e-6
GN	2	0	0	0	81	5.0
EK
EX	0	1	1	0	1	0	0
EX	0	2	1	0	cos(ph+180)	sin(ph+180)	0
FR	0	0	0	0	freq	0
EN
