CM 
CE
SY freq=7.1
SY D=7.5
SY L=3
SY const=1.0	'1.257
SY tau=0.5*D*const
SY ph=tau*freq*360/300
GW	1	11	D/2	0	0	D/2	0	L	0.01
GW	2	11	0	D/2	0	0	D/2	L	0.01
GW	3	11	0	-D/2	0	0	-D/2	L	0.01
GW	4	11	-D/2	0	0	-D/2	0	L	0.01
GE	1
LD	5	0	0	0	37700000
GN	2	0	0	0	17	0.015
EK
EX	0	1	1	0	1	0	0
EX	0	2	1	0	cos(ph-180)	sin(ph-180)	0
EX	0	3	1	0	cos(ph-180)	sin(ph-180)	0
EX	0	4	1	0	cos(2*ph)	sin(2*ph)	0
FR	0	0	0	0	freq	0
EN
