CM 
CE
SY freq=7.1
SY S=1
SY C=2
SY D=1.75
SY H=20
SY theta=20
SY tau=D*cos(theta)
SY ph=tau*freq*360/300
GW	1	5	-0.1732051	0	0	-0.1732051	0	4	7.e-3
GW	2	5	0.086603	0.15	0	0.086603	0.15	4	7.e-3
GW	3	5	0.086603	-0.15	0	0.086603	-0.15	4	7.e-3
GW	4	1	-0.1732051	0	4	0.086603	0.15	4	7.e-3
GW	5	1	0.086603	0.15	4	0.086603	-0.15	4	7.e-3
GW	6	1	0.086603	-0.15	4	-0.1732051	0	4	7.e-3
GW	7	5	-0.1732051	0	4	-0.1732051	0	8	7.e-3
GW	8	5	0.086603	0.15	4	0.086603	0.15	8	7.e-3
GW	9	5	0.086603	-0.15	4	0.086603	-0.15	8	7.e-3
GW	10	1	-0.1732051	0	8	0.086603	0.15	8	7.e-3
GW	11	1	0.086603	0.15	8	0.086603	-0.15	8	7.e-3
GW	12	1	0.086603	-0.15	8	-0.1732051	0	8	7.e-3
GW	13	5	-0.1732051	0	8	-0.1732051	0	12	7.e-3
GW	14	5	0.086603	0.15	8	0.086603	0.15	12	7.e-3
GW	15	5	0.086603	-0.15	8	0.086603	-0.15	12	7.e-3
GW	16	1	-0.1732051	0	12	0.086603	0.15	12	7.e-3
GW	17	1	0.086603	0.15	12	0.086603	-0.15	12	7.e-3
GW	18	1	0.086603	-0.15	12	-0.1732051	0	12	7.e-3
GW	19	5	-0.1732051	0	12	-0.1732051	0	16	7.e-3
GW	20	5	0.086603	0.15	12	0.086603	0.15	16	7.e-3
GW	21	5	0.086603	-0.15	12	0.086603	-0.15	16	7.e-3
GW	22	1	-0.1732051	0	16	0.086603	0.15	16	7.e-3
GW	23	1	0.086603	0.15	16	0.086603	-0.15	16	7.e-3
GW	24	1	0.086603	-0.15	16	-0.1732051	0	16	7.e-3
GW	25	5	-0.1732051	0	16	-0.1732051	0	20	7.e-3
GW	26	5	0.086603	0.15	16	0.086603	0.15	20	7.e-3
GW	27	5	0.086603	-0.15	16	0.086603	-0.15	20	7.e-3
GW	28	1	-0.1732051	0	20	0.086603	0.15	20	7.e-3
GW	29	1	0.086603	0.15	20	0.086603	-0.15	20	7.e-3
GW	30	1	0.086603	-0.15	20	-0.1732051	0	20	7.e-3
GW	31	5	-0.1732051	0	20	-0.1732051	0	24	7.e-3
GW	32	5	0.086603	0.15	20	0.086603	0.15	24	7.e-3
GW	33	5	0.086603	-0.15	20	0.086603	-0.15	24	7.e-3
GW	34	1	-0.1732051	0	24	0.086603	0.15	24	7.e-3
GW	35	1	0.086603	0.15	24	0.086603	-0.15	24	7.e-3
GW	36	1	0.086603	-0.15	24	-0.1732051	0	24	7.e-3
GW	37	7	-4	0	0	-0.1732051	0	4	2.e-3
GW	38	7	2	3.4641016	0	0.086603	0.15	4	2.e-3
GW	39	7	2	-3.464102	0	0.086603	-0.15	4	2.e-3
GW	40	11	-4	0	0	-0.1732051	0	8	2.e-3
GW	41	11	2	3.4641016	0	0.086603	0.15	8	2.e-3
GW	42	11	2	-3.464102	0	0.086603	-0.15	8	2.e-3
GW	43	15	-4	0	0	-0.1732051	0	12	2.e-3
GW	44	15	2	3.4641016	0	0.086603	0.15	12	2.e-3
GW	45	15	2	-3.464102	0	0.086603	-0.15	12	2.e-3
GW	46	19	-4	0	0	-0.1732051	0	16	2.e-3
GW	47	19	2	3.4641016	0	0.086603	0.15	16	2.e-3
GW	48	19	2	-3.464102	0	0.086603	-0.15	16	2.e-3
GW	49	25	-5	0	0	-0.1732051	0	20	2.e-3
GW	50	25	2.5	4.330127	0	0.086603	0.15	20	2.e-3
GW	51	25	2.5	-4.330127	0	0.086603	-0.15	20	2.e-3
GW	52	29	-5	0	0	-0.1732051	0	24	2.e-3
GW	53	29	2.5	4.330127	0	0.086603	0.15	24	2.e-3
GW	54	29	2.5	-4.330127	0	0.086603	-0.15	24	2.e-3
GW	55	1	-0.1732051	0	24	-0.1732051	0	25	7.e-3
GW	56	1	0.086603	0.15	24	0.086603	0.15	25	7.e-3
GW	57	1	0.086603	-0.15	24	0.086603	-0.15	25	7.e-3
GW	58	1	-0.1732051	0	25	0.086603	0.15	25	7.e-3
GW	59	1	0.086603	0.15	25	0.086603	-0.15	25	7.e-3
GW	60	1	0.086603	-0.15	25	-0.1732051	0	25	7.e-3
GW	61	1	-0.1732051	0	25	0	0	25	7.e-3
GW	62	1	0.086603	0.15	25	0	0	25	7.e-3
GW	63	1	0.086603	-0.15	25	0	0	25	7.e-3
GW	64	1	0	0	25	0	0	25.5	0.025
GW	65	5	0	0	25.5	0	0	29.5	0.025
GW	66	3	0	0	25.5	-2	0	25.5	0.025
GW	67	3	0	0	25.5	2	0	25.5	0.025
GW	68	5	-2	0	25.5	-2	3	25.5	0.025
GW	69	3	-2	0	25.5	-2	-2	25.5	0.025
GW	70	5	2	0	25.5	2	3	25.5	0.025
GW	71	3	2	0	25.5	2	-2	25.5	0.025
GW	72	3	C	S/2	H	S+C	S/2	H	0.001
GW	73	3	S+C	S/2	H	S+C	-S/2	H	0.001
GW	74	3	C	-S/2	H	S+C	-S/2	H	0.001
GW	75	3	C	S/2	H	C	-S/2	H	0.001
GW	76	3	C+D	S/2	H	S+C+D	S/2	H	0.001
GW	77	3	S+C+D	S/2	H	S+C+D	-S/2	H	0.001
GW	78	3	C+D	-S/2	H	S+C+D	-S/2	H	0.001
GW	79	3	C+D	S/2	H	C+D	-S/2	H	0.001
GW	80	3	C+(2*D)	S/2	H	S+C+(2*D)	S/2	H	0.001
GW	81	3	S+C+(2*D)	S/2	H	S+C+(2*D)	-S/2	H	0.001
GW	82	3	C+(2*D)	-S/2	H	S+C+(2*D)	-S/2	H	0.001
GW	83	3	C+(2*D)	S/2	H	C+(2*D)	-S/2	H	0.001
GW	84	3	C+D+(2*D)	S/2	H	S+C+D+(2*D)	S/2	H	0.001
GW	85	3	S+C+D+(2*D)	S/2	H	S+C+D+(2*D)	-S/2	H	0.001
GW	86	3	C+D+(2*D)	-S/2	H	S+C+D+(2*D)	-S/2	H	0.001
GW	87	3	C+D+(2*D)	S/2	H	C+D+(2*D)	-S/2	H	0.001
GE	1
GN	2	0	0	0	17	0.015
EK
EX	0	73	2	0	1	0	0
EX	0	75	2	0	-1	0	0
EX	0	77	2	0	cos(ph+180)	sin(ph+180)	0
EX	0	79	2	0	cos(ph)	sin(ph)	0
EX	0	81	2	0	-1	0	0
EX	0	83	2	0	1	0	0
EX	0	85	2	0	cos(ph)	sin(ph)	0
EX	0	87	2	0	cos(ph+180)	sin(ph+180)	0
FR	0	0	0	0	freq	0
EN
