CM 
CE
SY H=20
SY W=1.5
SY Y_off=3
GW	1	7	0	-0.1732051	0	0	-0.1732051	4	7.e-3
GW	2	7	-0.15	0.086603	0	-0.15	0.086603	4	7.e-3
GW	3	7	0.15	0.086603	0	0.15	0.086603	4	7.e-3
GW	4	1	0	-0.1732051	4	-0.15	0.086603	4	7.e-3
GW	5	1	-0.15	0.086603	4	0.15	0.086603	4	7.e-3
GW	6	1	0.15	0.086603	4	0	-0.1732051	4	7.e-3
GW	7	7	0	-0.1732051	4	0	-0.1732051	8	7.e-3
GW	8	7	-0.15	0.086603	4	-0.15	0.086603	8	7.e-3
GW	9	7	0.15	0.086603	4	0.15	0.086603	8	7.e-3
GW	10	1	0	-0.1732051	8	-0.15	0.086603	8	7.e-3
GW	11	1	-0.15	0.086603	8	0.15	0.086603	8	7.e-3
GW	12	1	0.15	0.086603	8	0	-0.1732051	8	7.e-3
GW	13	7	0	-0.1732051	8	0	-0.1732051	12	7.e-3
GW	14	7	-0.15	0.086603	8	-0.15	0.086603	12	7.e-3
GW	15	7	0.15	0.086603	8	0.15	0.086603	12	7.e-3
GW	16	1	0	-0.1732051	12	-0.15	0.086603	12	7.e-3
GW	17	1	-0.15	0.086603	12	0.15	0.086603	12	7.e-3
GW	18	1	0.15	0.086603	12	0	-0.1732051	12	7.e-3
GW	19	7	0	-0.1732051	12	0	-0.1732051	16	7.e-3
GW	20	7	-0.15	0.086603	12	-0.15	0.086603	16	7.e-3
GW	21	7	0.15	0.086603	12	0.15	0.086603	16	7.e-3
GW	22	1	0	-0.1732051	16	-0.15	0.086603	16	7.e-3
GW	23	1	-0.15	0.086603	16	0.15	0.086603	16	7.e-3
GW	24	1	0.15	0.086603	16	0	-0.1732051	16	7.e-3
GW	25	7	0	-0.1732051	16	0	-0.1732051	20	7.e-3
GW	26	7	-0.15	0.086603	16	-0.15	0.086603	20	7.e-3
GW	27	7	0.15	0.086603	16	0.15	0.086603	20	7.e-3
GW	28	1	0	-0.1732051	20	-0.15	0.086603	20	7.e-3
GW	29	1	-0.15	0.086603	20	0.15	0.086603	20	7.e-3
GW	30	1	0.15	0.086603	20	0	-0.1732051	20	7.e-3
GW	31	7	0	-0.1732051	20	0	-0.1732051	24	7.e-3
GW	32	7	-0.15	0.086603	20	-0.15	0.086603	24	7.e-3
GW	33	7	0.15	0.086603	20	0.15	0.086603	24	7.e-3
GW	34	1	0	-0.1732051	24	-0.15	0.086603	24	7.e-3
GW	35	1	-0.15	0.086603	24	0.15	0.086603	24	7.e-3
GW	36	1	0.15	0.086603	24	0	-0.1732051	24	7.e-3
GW	37	9	0	-4	0	0	-0.1732051	4	2.e-3
GW	38	9	-3.4641016	2	0	-0.15	0.086603	4	2.e-3
GW	39	9	3.464102	2	0	0.15	0.086603	4	2.e-3
GW	40	13	0	-4	0	0	-0.1732051	8	2.e-3
GW	41	13	-3.4641016	2	0	-0.15	0.086603	8	2.e-3
GW	42	13	3.464102	2	0	0.15	0.086603	8	2.e-3
GW	43	19	0	-4	0	0	-0.1732051	12	2.e-3
GW	44	19	-3.4641016	2	0	-0.15	0.086603	12	2.e-3
GW	45	19	3.464102	2	0	0.15	0.086603	12	2.e-3
GW	46	23	0	-4	0	0	-0.1732051	16	2.e-3
GW	47	23	-3.4641016	2	0	-0.15	0.086603	16	2.e-3
GW	48	23	3.464102	2	0	0.15	0.086603	16	2.e-3
GW	49	29	0	-5	0	0	-0.1732051	20	2.e-3
GW	50	29	-4.330127	2.5	0	-0.15	0.086603	20	2.e-3
GW	51	29	4.330127	2.5	0	0.15	0.086603	20	2.e-3
GW	52	35	0	-5	0	0	-0.1732051	24	2.e-3
GW	53	35	-4.330127	2.5	0	-0.15	0.086603	24	2.e-3
GW	54	35	4.330127	2.5	0	0.15	0.086603	24	2.e-3
GW	55	1	0	-0.1732051	24	0	-0.1732051	25	7.e-3
GW	56	1	-0.15	0.086603	24	-0.15	0.086603	25	7.e-3
GW	57	1	0.15	0.086603	24	0.15	0.086603	25	7.e-3
GW	58	1	0	-0.1732051	25	-0.15	0.086603	25	7.e-3
GW	59	1	-0.15	0.086603	25	0.15	0.086603	25	7.e-3
GW	60	1	0.15	0.086603	25	0	-0.1732051	25	7.e-3
GW	61	1	0	-0.1732051	25	0	0	25	7.e-3
GW	62	1	-0.15	0.086603	25	0	0	25	7.e-3
GW	63	1	0.15	0.086603	25	0	0	25	7.e-3
GW	64	1	0	0	25	0	0	25.5	0.025
GW	65	7	0	0	25.5	0	0	29.5	0.025
GW	66	3	0	0	25.5	0	-2	25.5	0.025
GW	67	3	0	0	25.5	0	2	25.5	0.025
GW	68	5	0	-2	25.5	-3	-2	25.5	0.025
GW	69	3	0	-2	25.5	2	-2	25.5	0.025
GW	70	5	0	2	25.5	-3	2	25.5	0.025
GW	71	3	0	2	25.5	2	2	25.5	0.025
GW	72	5	W/2	-W/2+Y_off	H	W/2	W/2+Y_off	H	0.001
GW	73	5	-W/2	-W/2+Y_off	H	-W/2	W/2+Y_off	H	0.001
GW	74	5	-W/2	-W/2+Y_off	H	W/2	-W/2+Y_off	H	0.001
GW	75	5	-W/2	W/2+Y_off	H	W/2	W/2+Y_off	H	0.001
GE	1
LD	5	0	0	0	58000000
GN	2	0	0	0	17	0.015
EK
EX	0	72	3	0	1	0	0
EX	0	73	3	0	-1	0	0
EX	0	74	3	0	1	0	0
EX	0	75	3	0	-1	0	0
FR	0	0	0	0	7.1	0
EN
