CM 
CE
SY freq=7.1
SY W=2
SY L=5
SY R1=857
SY H=0.5
GW	1	7	L/2	0	H	L/2	0	H+W	0.001
GW	2	21	L/2	0	H	-L/2	0	H	0.001
GW	3	7	-L/2	0	H	-L/2	0	H+W	0.001
GW	4	21	L/2	0	H+W	-L/2	0	H+W	0.001
GE	1
LD	0	3	4	0	R1
LD	5	0	0	0	58000000
GN	2	0	0	0	17	0.015
EK
EX	0	1	4	0	1	0	0
FR	0	0	0	0	freq	0
EN
