CM 
CE
SY H=3
SY S=10.748
GW	1	11	S/2	S/2	H	S/2	-S/2	H	0.001
GW	2	11	-S/2	S/2	H	-S/2	-S/2	H	0.001
GW	3	11	S/2	S/2	H	-S/2	S/2	H	0.001
GW	4	11	S/2	-S/2	H	-S/2	-S/2	H	0.001
GE	1
LD	5	0	0	0	58000000
GN	2	0	0	0	17	0.015
EK
EX	0	1	6	0	1	0	0
FR	0	0	0	0	7.1	0
EN
