CM 
CE
SY freq=7.1
SY W=1
SY H=5
SY D=2
SY theta=30
SY tau=D*cos(theta)
SY phase=tau*freq*360/300
GW	1	7	0	-W/2	H	0	W/2	H	0.005
GW	2	7	0	W/2	H	0	W/2	H+W	0.005
GW	3	7	0	W/2	H+W	0	-W/2	H+W	0.005
GW	4	7	0	-W/2	H+W	0	-W/2	H	0.005
GE	1
LD	5	0	0	0	58000000
GN	2	0	0	0	17	0.015
EK
EX	0	1	4	0	1	0	0
FR	0	0	0	0	freq	0
EN
