CM Example file by Dimitry Fedorov, UA3AVR
CE
GW	1	19	0	-0.49372	0	0	0.49372	0	0.0025
GM	1	3	0	0	0	0	0	1.560375	0
GM	0	0	0	0	0	0	0	2	0
GW	1001	1	0	-.01	1	0	.01	1	0.000001
GE	1
GN	1
EK
EX	0	1001	1	0	1.0000	0	0
TL	2	10	1	10	50	2.08188758	0	0	0	0
TL	3	10	2	10	50	2.08188758	0	0	0	0
TL	4	10	3	10	50	2.08188758	0	0	0	0
TL	1	10	1001	1	25	0.52047189	0	0	0	0
FR	0	0	0	0	144.1	0
RP	0	181	1	1000	90	0	-1	0		
EN
