CM 
CE
SY freq=3.7
SY H=35
SY L=30
SY B=11.88681
GW	5	15	0	-L/2	H	0	L/2	H	0.001
GW	1	1	0	-0.2	B	0	0.2	B	0.001
GW	2	15	0	-0.2	B	0	-L/2	H	0.001
GW	3	15	0	0.2	B	0	L/2	H	0.001
GE	-1
LD	5	0	0	0	30800000
GN	2	0	0	0	17	0.015
EK
EX	0	1	1	0	1	0	0
FR	0	0	0	0	freq	0
EN
