CM 
CE
SY G=7.5
GW	1	25	0	-2.709654+(G/2)	2	0	0+(G/2)	5.60104098	8.048e-4
GW	2	25	0	2.70965406+(G/2)	2	0	0+(G/2)	5.60104098	8.048e-4
GW	3	31	0	-2.709654+(G/2)	2	0	2.70965406+(G/2)	2	8.048e-4
GW	4	25	0	-2.709654-(G/2)	2	0	0-(G/2)	5.60104098	8.048e-4
GW	5	25	0	2.70965406-(G/2)	2	0	0-(G/2)	5.60104098	8.048e-4
GW	6	31	0	-2.709654-(G/2)	2	0	2.70965406-(G/2)	2	8.048e-4
GE	-1
LD	5	0	0	0	58000000
LD	2	0	0	0	0	1.63923e-7
GN	2	0	0	0	81	5.0
EK
EX	0	1	6	0	1	0	0
EX	0	4	6	0	1	0	0
FR	0	0	0	0	21.05	0
EN
