CM 
CE
SY freq=10.12
SY H=23
SY L=5
SY T=1.4
SY wrad=0.01
GW	1	11	0	-L	H	0	L	H	wrad
GW	2	4	0	-L	H	T	-L	H	wrad
GW	3	4	0	-L	H	-T	-L	H	wrad
GW	4	4	0	L	H	T	L	H	wrad
GW	5	4	0	L	H	-T	L	H	wrad
GE	1
LD	5	0	0	0	37700000
GN	2	0	0	0	17	0.015
EK
EX	0	1	6	0	1	0	0
FR	0	0	0	0	freq	0
EN
