CM Unnamed, converted with 4nec2 on 3-Jun-18 15:04
CE
GW	1	7	0	-1.54602	23.45398	0	1.54602	23.45398	8.e-4
GW	2	7	0	1.54602	23.45398	0	1.54602	26.54602	8.e-4
GW	3	7	0	1.54602	26.54602	0	-1.54602	26.54602	8.e-4
GW	4	7	0	-1.54602	26.54602	0	-1.54602	23.45398	8.e-4
GW	5	7	-2.75	-1.60192	23.39808	-2.75	1.60192	23.39808	8.e-4
GW	6	7	-2.75	1.60192	23.39808	-2.75	1.60192	26.60192	8.e-4
GW	7	7	-2.75	1.60192	26.60192	-2.75	-1.60192	26.60192	8.e-4
GW	8	7	-2.75	-1.60192	26.60192	-2.75	-1.60192	23.39808	8.e-4
GW	9	5	2.75	-1.39523	23.60477	2.75	1.39523	23.60477	8.e-4
GW	10	5	2.75	1.39523	23.60477	2.75	1.39523	26.39523	8.e-4
GW	11	5	2.75	1.39523	26.39523	2.75	-1.39523	26.39523	8.e-4
GW	12	5	2.75	-1.39523	26.39523	2.75	-1.39523	23.60477	8.e-4
GE	0
EK
LD	5	1	0	0	2.5e7	0
LD	5	2	0	0	2.5e7	0
LD	5	3	0	0	2.5e7	0
LD	5	4	0	0	2.5e7	0
LD	5	5	0	0	2.5e7	0
LD	5	6	0	0	2.5e7	0
LD	5	7	0	0	2.5e7	0
LD	5	8	0	0	2.5e7	0
LD	5	9	0	0	2.5e7	0
LD	5	10	0	0	2.5e7	0
LD	5	11	0	0	2.5e7	0
LD	5	12	0	0	2.5e7	0
EX	0	1	4	0	1	0
GN	3	0	0	0	13	0.005
FR	0	1	0	0	24.9	0
