CM Unnamed, converted with 4nec2 on 3-Jun-18 11:20
CE
GW	1	7	0	-1.82378	23.17622	0	1.82378	23.17622	8.e-4
GW	2	7	0	1.82378	23.17622	0	1.82378	26.82378	8.e-4
GW	3	7	0	1.82378	26.82378	0	-1.82378	26.82378	8.e-4
GW	4	7	0	-1.82378	26.82378	0	-1.82378	23.17622	8.e-4
GW	5	7	-2.5	-1.8882	23.1118	-2.5	1.8882	23.1118	8.e-4
GW	6	7	-2.5	1.8882	23.1118	-2.5	1.8882	26.8882	8.e-4
GW	7	7	-2.5	1.8882	26.8882	-2.5	-1.8882	26.8882	8.e-4
GW	8	7	-2.5	-1.8882	26.8882	-2.5	-1.8882	23.1118	8.e-4
GW	9	5	2.5	-1.62356	23.37644	2.5	1.62356	23.37644	8.e-4
GW	10	5	2.5	1.62356	23.37644	2.5	1.62356	26.62356	8.e-4
GW	11	5	2.5	1.62356	26.62356	2.5	-1.62356	26.62356	8.e-4
GW	12	5	2.5	-1.62356	26.62356	2.5	-1.62356	23.37644	8.e-4
GE	0
EK
LD	5	1	0	0	2.5e7	0
LD	5	2	0	0	2.5e7	0
LD	5	3	0	0	2.5e7	0
LD	5	4	0	0	2.5e7	0
LD	5	5	0	0	2.5e7	0
LD	5	6	0	0	2.5e7	0
LD	5	7	0	0	2.5e7	0
LD	5	8	0	0	2.5e7	0
LD	5	9	0	0	2.5e7	0
LD	5	10	0	0	2.5e7	0
LD	5	11	0	0	2.5e7	0
LD	5	12	0	0	2.5e7	0
EX	0	1	4	0	1	0
GN	3	0	0	0	13	0.005
FR	0	1	0	0	21.05	0
