CM 3-element Yagi, 20 meters, 1" Al
CM L. B. Cebik, W4RNL
CM 
CE
SY len=16.501	'16.617
SY h1=50
SY h2=100
GW	1	41	-.817	-len	h1	-.817	len	h1	.0415
GW	2	41	-11.272	-17.28	h1	-11.272	17.28	h1	.0415
GW	3	41	11.272	-15.525	h1	11.272	15.525	h1	.0415
GW	4	41	-.817	-len	h2	-.817	len	h2	.0415
GW	5	41	-11.272	-17.28	h2	-11.272	17.28	h2	.0415
GW	6	41	11.272	-15.525	h2	11.272	15.525	h2	.0415
GS	0	0	0.3048
GE	1
LD	5	0	0	0	24900000
GN	2	0	0	0	17	0.015
EK
EX	0	1	21	0	1	0	0
FR	0	0	0	0	14.175	0
EN
