CM 
CE
SY freq=145.82
SY wrad=0.5*5*1e-3
SY D=0.937653
SY R=1.021024
SY Dir=0.881539
SY RD=0.562974
SY DDir=0.546556
SY h=2
GW	1	19	0	-D/2	h+RD	0	D/2	h+RD	wrad
GW	2	19	0	-R/2	h	0	R/2	h	wrad
GW	3	19	0	-Dir/2	h+RD+DDir	0	Dir/2	h+RD+DDir	wrad
GE	1
GN	2	0	0	0	17	0.015
EK
EX	0	1	10	0	1	0	0
FR	0	0	0	0	freq	0
EN
