CM Optimized to be used with a shunt inductor 55.5 nHof inductance.
CM Set to have an input impedance of 29-j25 Ohm.
CE
SY freq=166
SY wrad=0.5*5*1e-3
SY D=0.823417
SY R=0.890967
SY Dir=0.788909
SY RD=0.354283
SY DDir=0.300017
SY h=2
GW	1	19	0	-D/2	h	0	D/2	h	wrad
GW	2	19	-RD	-R/2	h	-RD	R/2	h	wrad
GW	3	19	DDir	-Dir/2	h	DDir	Dir/2	h	wrad
GE	1
GN	2	0	0	0	17	0.015
EK
EX	0	1	10	0	1	0	0
FR	0	0	0	0	freq	0
EN
