CM 
CE
SY freq=7.1
SY H=12
SY L=10.5
GW	1	30	0	0	H	-8	0	H	0.8e-3
GW	2	15	-8	0	H	-8	-L+8	H	0.8e-3
GW	3	30	0	0	H	0	L	H	0.8e-3
GE	1
LD	5	0	0	0	58000000
GN	2	0	0	0	17	0.015
EK
EX	0	3	1	0	1	0	0
FR	0	0	0	0	freq	0
EN
