CM 
CE
SY freq=7.1
SY H=10
SY S=13
SY g=2
SY ph=5
GW	1	30	0	s/2	g	0	s/2	H+g	0.8e-3
GW	2	30	0	-s/2	g	0	-s/2	H+g	0.8e-3
GW	3	35	0	s/2	H+g	0	-s/2	H+g	0.8e-3
GW	4	35	0	s/2	g	0	-s/2	g	0.8e-3
GE	1
LD	5	0	0	0	58000000
GN	2	0	0	0	17	0.015
EK
EX	0	1	1	0	1	0	0
FR	0	0	0	0	freq	0
EN
