CM 
CE
SY freq=3.55
SY L=7.49	'8.68
SY S=L*1
GW	1	1	0	0	0	0	0	0.2	1e-3
GW	2	10	0	0	0.2	0	S/2	L/2	1e-3
GW	3	10	0	0	0.2	0	-S/2	L/2	1e-3
GW	4	10	0	S/2	L/2	0	0	L	1e-3
GW	5	10	0	-S/2	L/2	0	0	L	1e-3
GW	6	10	0	0	0.2	S/2	0	L/2	1e-3
GW	7	10	0	0	0.2	-S/2	0	L/2	1e-3
GW	8	10	S/2	0	L/2	0	0	L	1e-3
GW	9	10	-S/2	0	L/2	0	0	L	1e-3
GE	1
LD	5	0	0	0	58000000
GN	0	30	0	0	13	0.005	10	1.e-3
EK
EX	0	1	1	0	1	0	0
FR	0	0	0	0	freq	0
EN
