CM 
CE
SY freq=7.1
SY H=(300/freq)*0.25*0.97
SY R=4.1622
SY B=6
SY sp=0.3
GW	1	10	0	0	B	0	0	B+H	0.001
GW	2	5	0	0	B	0	R	B	0.001
GW	3	1	0	R	B	sp	R	B	0.001
GW	4	10	sp	-R	B	sp	R	B	0.001
GW	5	8	0	0	0	0	0	B	0.005
GE	1
LD	5	0	0	0	58000000
LD	7	0	0	0	4.5	0.002
LD	4	5	1	0	10
LD	4	5	8	0	0	3000
GN	2	0	0	0	17	0.015
EK
EX	0	1	1	0	1	0	0
FR	0	0	0	0	freq	0
EN
