CM 
CE
SY freq=7.1
SY H=24
SY L=9.9073
GW	1	1	0	-0.1	H	0	0.1	H	0.001
GW	2	15	0	0.1	H	0	L	H	0.001
GW	3	15	0	-0.1	H	0	-L	H	0.001
GW	12	1	0	-0.1	H	0	0	H-0.1	0.001
GW	13	1	0	0.1	H	0	0	H-0.1	0.001
GE	1
LD	5	0	0	0	58000000
LD	7	0	0	0	4.5	0.002
LD	1	1	1	0	0	0.000000251	0.000000002
GN	2	0	0	0	17	0.015
EK
EX	0	12	1	0	1	0	0
FR	0	0	0	0	freq	0
EN
