CM 
CE
SY freq=14.1
SY H=22
SY L1=1
SY L2=4
SY L3=10
SY T1=1
SY T2=1
SY Ind=5
GW	1	19	0	-L2	H	0	L2	H	0.001
GW	3	10	0	-L2	H	0	-L3	H	0.001
GW	5	10	0	L2	H	0	L3	H	0.001
GE	1
LD	5	0	0	0	58000000
LD	7	0	0	0	4.5	0.002
LD	0	3	1	1	0	Ind*0.000001
LD	0	5	1	1	0	Ind*0.000001
GN	2	0	0	0	17	0.015
EK
EX	0	1	10	0	1	0	0
FR	0	0	0	0	freq	0
EN
