CM 
CE
SY freq=7.1
SY H=20
SY sp=0.4
SY L1=9.257184
SY L2=10.62021
SY the=30
GW	1	3	0	0	H	0	0	H-sp	0.001
GW	2	10	0	0	H	0	-L1*cos(the)	H-L1*sin(the)	0.001
GW	3	11	0	0	H	0	L2*cos(the)	H-L2*sin(the)	0.001
GW	4	11	0	0	H-sp	0	-L2*cos(the)	H-L2*sin(the)-sp	0.001
GW	5	10	0	0	H-sp	0	L1*cos(the)	H-L1*sin(the)-sp	0.001
GE	1
LD	5	0	0	0	58000000
LD	7	0	0	0	4.5	0.002
GN	2	0	0	0	17	0.015
EK
EX	0	1	2	0	1	0	0
FR	0	0	0	0	freq	0
EN
