CM 
CE
SY freq=7.075
SY H=24
SY L=9.972103
SY wrad=0.0018/2	'diameter=1.8 mm
SY irad=0.0035/2	'diameter=3.5 mm
GW	1	39	0	-L	H	0	L	H	wrad
GE	1
LD	5	0	0	0	58000000
LD	7	0	0	0	4.5	irad
GN	2	0	0	0	17	0.015
EK
EX	0	1	20	0	1	0	0
FR	0	0	0	0	freq	0
EN
