CM 
CE
SY freq=7.1
SY H=26
SY theta=28.00996
SY L=9.911
SY L1=L
SY L2=L
SY sp=7
GW	1	11	0	0	H	0	L1*cos(theta)	H+L1*sin(theta)	0.002
GW	2	11	0	0	H	0	-L1*cos(theta)	H+L1*sin(theta)	0.002
GW	3	11	sp	0	H	sp	L2*cos(theta)	H+L2*sin(theta)	0.002
GW	4	11	sp	0	H	sp	-L2*cos(theta)	H+L2*sin(theta)	0.002
GE	1
LD	5	0	0	0	58000000
LD	7	0	0	0	4.5	0.003
GN	2	0	0	0	17	0.015
EK
EX	0	1	1	0	1	0	0
EX	0	2	1	0	-1	0	0
EX	0	3	1	0	-1	0	0
EX	0	4	1	0	1	0	0
FR	0	0	0	0	freq	0
EN
