CM 
CE
SY freq=7.1
SY H=24
SY lambda=300/freq
SY vfc=0.948048
SY LC=lambda*0.25*vfc
SY cwr=0.005/2
SY cir=0.0075/2
GW	1	19	0	LC	H	0	-LC	H	cwr
GE	1
LD	5	0	0	0	58000000
LD	7	1	0	0	4.5	cir
GN	2	0	0	0	17	0.015
EK
EX	0	1	10	0	1	0	0
FR	0	0	0	0	freq	0
EN
