CM 
CE
SY V=10.4
SY R=10
SY Vr=0.01
SY Rr=0.01
SY H=10
SY theta=25
GW	1	20	0	0	H	0	0	V+H	Vr
GW	2	20	0	0	H	R*cos(theta)	0	-R*sin(theta)+H	Rr
GW	3	20	0	0	H	-R*cos(theta)	0	-R*sin(theta)+H	Rr
GW	4	20	0	0	H	0	R*cos(theta)	-R*sin(theta)+H	Rr
GW	5	20	0	0	H	0	-R*cos(theta)	-R*sin(theta)+H	Rr
GE	1
LD	5	0	0	0	58000000
LD	7	0	0	0	4.5	0.0015
GN	2	0	0	0	17	0.015
EK
EX	0	1	1	0	1	0	0
FR	0	0	0	0	7.1	0
EN
