CM 
CE
SY freq=7.1
SY H=23
SY theta=30
SY L=16
SY f=10.442
GW	1	11	0	-L/2	H	0	L/2	H	0.001
GW	2	11	0	-L/2	H	3	0	H-f	0.001
GW	3	11	0	L/2	H	3	0	H-f	0.001
GE	1
LD	5	0	0	0	58000000
LD	7	0	0	0	4.5	0.002
GN	2	0	0	0	17	0.015
EK
EX	0	1	6	0	1	0	0
FR	0	0	0	0	freq	0
EN
