CM 
CE
SY freq=7.1
SY H=22
SY L=10.4
SY apex1=30
SY apex2=60
SY theta1=90-apex1
SY theta2=90-apex2
SY tune=0.21
GW	1	10	0	-0.05	H	0	-L*cos(theta1)	H-L*sin(theta1)	0.001
GW	2	10	0	0.05	H	0	L*cos(theta2)	H-L*sin(theta2)	0.001
GW	3	1	0	0.05	H	tune	0.05	H	0.001
GW	4	1	0	-0.05	H	tune	-0.05	H	0.001
GW	5	1	tune	0.05	H	tune	-0.05	H	0.001
GE	1
LD	5	0	0	0	58000000
GN	2	0	0	0	17	0.015
EK
EX	0	5	1	0	1	0	0
FR	0	0	0	0	freq	0
EN
