CM 
CE
SY freq=7.1
SY H=22
SY theta=28.00996
SY L=9.751935
SY L2=4.981509
SY sp=0.5
GW	1	39	0	-L	H	0	L	H	0.001
GW	2	29	0	-L2	H-sp	0	L2	H-sp	0.001
GE	1
LD	5	0	0	0	58000000
LD	7	0	0	0	4.5	0.002
GN	2	0	0	0	17	0.015
EK
EX	0	2	15	0	1	0	0
TL	1	20	2	15	450	sp	0	0	0	0
FR	0	0	0	0	freq	0
EN
