CM 
CE
SY freq=7.1
SY H=23
SY L=7.5	'9.953
SY Zo=50
SY TL=20
SY ch=2.133
GW	1	39	0	-L	H	0	L	H	0.02
GW	2	2	0	-L	H	-ch	-L	H	0.004
GW	3	2	0	-L	H	ch	-L	H	0.004
GW	4	2	0	L	H	-ch	L	H	0.004
GW	5	2	0	L	H	ch	L	H	0.004
GE	1
LD	5	0	0	0	37700000
GN	2	0	0	0	17	0.015
EK
EX	0	1	20	0	1	0	0
FR	0	0	0	0	freq	0
EN
