CM 
CE
SY freq = 7.1
SY A = 9
SY L = 11
SY theta=34.38169
SY H = L*sin(theta)
SY W = L*cos(theta)
SY d = 0.1
GW	1	1	0	-d	A	0	d	A	1e-3
GW	2	20	0	d	A	0	W	H+A	1e-3
GW	3	20	0	-d	A	0	-W	H+A	1e-3
GW	4	30	0	-W	H+A	0	W	H+A	1e-3
GE	1
GN	2	0	0	0	17	0.015
EK
EX	0	1	1	0	1	0	0
FR	0	0	0	0	freq	0
EN
