CM 
CE
SY freq=7.1
SY H=22
SY P=5
SY Zo=450
GW	1	19	P	P	H	P	-P	H	0.001
GW	2	19	-P	P	H	-P	-P	H	0.001
GW	3	19	P	P	H	-P	P	H	0.001
GW	4	19	P	-P	H	-P	-P	H	0.001
GW	5	1	0.05	0	H	-0.05	0	H	0.001
GE	1
LD	5	0	0	0	58000000
LD	7	0	0	0	4.5	0.002
GN	2	0	0	0	17	0.015
EK
EX	0	5	1	0	1	0	0
TL	3	10	5	1	Zo	P	0	0	0	0
TL	4	10	5	1	-Zo	P	0	0	0	0
FR	0	0	0	0	freq	0
EN
