CM 
CE
SY freq=7.1
SY H=22
SY L=9.9291	'9.953
SY Zo=50
SY TL=20
GW	1	39	0	-L	H	0	L	H	0.001
GW	2	1	0	-0.05	1	0	0.05	1	0.001
GE	1
LD	5	0	0	0	58000000
LD	7	0	0	0	4.5	0.002
GN	2	0	0	0	17	0.015
EK
EX	0	2	1	0	1	0	0
TL	1	20	2	1	Zo	TL	0	0	0	0
FR	0	0	0	0	freq	0
EN
