CM 
CE
SY freq=7.1
SY QW=(300/freq)*0.25*0.97
SY H=6
SY R=2.2634
SY B=4
SY sp=0.2
SY RL=7
GW	1	10	0	0	B	0	0	B+H	0.001
GW	2	7	0	0	0	0	0	B	0.005
GW	3	5	0	0	B	R	0	B	0.001
GW	11	10	0	0	B+H	RL	0	B+H	0.001
GW	12	10	RL	0	B	RL	0	B+H	0.001
GE	1
LD	5	0	0	0	58000000
LD	7	0	0	0	4.5	0.002
LD	4	2	1	0	10
LD	4	2	7	0	0	3000
GN	2	0	0	0	17	0.015
EK
EX	0	1	1	0	1	0	0
FR	0	0	0	0	freq	0
EN
