CM 
CE
SY freq=7.1
SY H=22
SY L1=0.883
SY L2=10.322
SY T=1.495102
GW	1	19	0	-L1	H	0	L1	H	0.001
GW	2	10	0	-L1	H	0	-L2	H	0.001
GW	3	10	0	L1	H	0	L2	H	0.001
GW	4	2	0	-L1	H	0	-L1	H-T	0.001
GW	5	2	0	L1	H	0	L1	H-T	0.001
GE	1
LD	5	0	0	0	58000000
LD	7	0	0	0	4.5	0.001
GN	2	0	0	0	17	0.015
EK
EX	0	1	10	0	1	0	0
FR	0	0	0	0	freq	0
EN
