CM 
CE
SY freq=7.1
SY H=22
SY theta1=30
SY theta2=50
SY L=13.003
GW	2	11	0	0	H	0	-L*sin(theta1)	H-L*cos(theta1)	0.001
GW	3	11	0	0	H	0	L*sin(theta2)	H-L*cos(theta2)	0.001
GW	4	11	0	-L*sin(theta1)	H-L*cos(theta1)	0	L*sin(theta2)	H-L*cos(theta2)	0.001
GE	1
LD	5	0	0	0	58000000
LD	7	0	0	0	4.5	0.002
GN	2	0	0	0	17	0.015
EK
EX	0	4	6	0	1	0	0
FR	0	0	0	0	freq	0
EN
