CM 
CE
SY freq=3.525
SY H=0.005
SY L=42*ft
SY R=10
SY RA=0
SY N=30
SY CH=2
SY NCH=4
GW	1	30	0	0	H	0	0	H+L
GC	0	0	1	27e-3	4.8e-3
GW	2	20	0	0	H	0	R*cos(RA)	H-R*sin(RA)
GC	0	0	1	6e-3	0.5e-3
GM	1	N-1	0	0	360/N	0	0	0	2
GW	2+N	4	0	0	H+L	0	CH	H+L
GC	0	0	1	3e-3	3e-3
GM	1	NCH-1	0	0	360/NCH	0	0	0	2+N
GE	1
LD	5	0	0	0	24900000
GN	2	0	0	0	17	0.015
EK
EX	0	1	1	0	1	0	0
FR	0	0	0	0	freq	0
EN
