CM 
CE
SY freq=7.05
SY H=0.005
SY L=12.3
SY R=10
SY N=2
GW	1	30	0	0	H	0	0	H+L
GC	0	0	1	27e-3	4.8e-3
GW	2	20	0	0	H	0	R	H
GC	0	0	1	6e-3	0.5e-3
GM	1	N-1	0	0	360/N	0	0	0	2
GE	1
LD	5	0	0	0	24900000
GN	2	0	0	0	13	0.005
EK
EX	0	1	1	0	1	0	0
FR	0	0	0	0	freq	0
EN
