CM Unnamed, converted with 4nec2 on 3-Jun-18 15:03
CE
GW	1	7	0	-1.36327	23.63673	0	1.36327	23.63673	8.e-4
GW	2	7	0	1.36327	23.63673	0	1.36327	26.36327	8.e-4
GW	3	7	0	1.36327	26.36327	0	-1.36327	26.36327	8.e-4
GW	4	7	0	-1.36327	26.36327	0	-1.36327	23.63673	8.e-4
GW	5	7	-2.75	-1.41755	23.58245	-2.75	1.41755	23.58245	8.e-4
GW	6	7	-2.75	1.41755	23.58245	-2.75	1.41755	26.41755	8.e-4
GW	7	7	-2.75	1.41755	26.41755	-2.75	-1.41755	26.41755	8.e-4
GW	8	7	-2.75	-1.41755	26.41755	-2.75	-1.41755	23.58245	8.e-4
GW	9	5	2.75	-1.30587	23.69413	2.75	1.30587	23.69413	8.e-4
GW	10	5	2.75	1.30587	23.69413	2.75	1.30587	26.30587	8.e-4
GW	11	5	2.75	1.30587	26.30587	2.75	-1.30587	26.30587	8.e-4
GW	12	5	2.75	-1.30587	26.30587	2.75	-1.30587	23.69413	8.e-4
GW	13	5	5.5	-1.25672	23.74328	5.5	1.25672	23.74328	8.e-4
GW	14	5	5.5	1.25672	23.74328	5.5	1.25672	26.25672	8.e-4
GW	15	5	5.5	1.25672	26.25672	5.5	-1.25672	26.25672	8.e-4
GW	16	5	5.5	-1.25672	26.25672	5.5	-1.25672	23.74328	8.e-4
GE	0
EK
LD	5	1	0	0	2.5e7	0
LD	5	2	0	0	2.5e7	0
LD	5	3	0	0	2.5e7	0
LD	5	4	0	0	2.5e7	0
LD	5	5	0	0	2.5e7	0
LD	5	6	0	0	2.5e7	0
LD	5	7	0	0	2.5e7	0
LD	5	8	0	0	2.5e7	0
LD	5	9	0	0	2.5e7	0
LD	5	10	0	0	2.5e7	0
LD	5	11	0	0	2.5e7	0
LD	5	12	0	0	2.5e7	0
LD	5	13	0	0	2.5e7	0
LD	5	14	0	0	2.5e7	0
LD	5	15	0	0	2.5e7	0
LD	5	16	0	0	2.5e7	0
EX	0	1	4	0	1	0
GN	3	0	0	0	13	0.005
FR	0	1	0	0	28.2	0
