CM Unnamed, converted with 4nec2 on 3-Jun-18 15:05
CE
GW	1	7	0	-1.81628	23.18372	0	1.81628	23.18372	8.e-4
GW	2	7	0	1.81628	23.18372	0	1.81628	26.81628	8.e-4
GW	3	7	0	1.81628	26.81628	0	-1.81628	26.81628	8.e-4
GW	4	7	0	-1.81628	26.81628	0	-1.81628	23.18372	8.e-4
GW	5	7	-2.75	-1.8957	23.1043	-2.75	1.8957	23.1043	8.e-4
GW	6	7	-2.75	1.8957	23.1043	-2.75	1.8957	26.8957	8.e-4
GW	7	7	-2.75	1.8957	26.8957	-2.75	-1.8957	26.8957	8.e-4
GW	8	7	-2.75	-1.8957	26.8957	-2.75	-1.8957	23.1043	8.e-4
GW	9	5	2.75	-1.6925	23.3075	2.75	1.6925	23.3075	8.e-4
GW	10	5	2.75	1.6925	23.3075	2.75	1.6925	26.6925	8.e-4
GW	11	5	2.75	1.6925	26.6925	2.75	-1.6925	26.6925	8.e-4
GW	12	5	2.75	-1.6925	26.6925	2.75	-1.6925	23.3075	8.e-4
GW	13	5	5.5	-1.63	23.37	5.5	1.63	23.37	8.e-4
GW	14	5	5.5	1.63	23.37	5.5	1.63	26.63	8.e-4
GW	15	5	5.5	1.63	26.63	5.5	-1.63	26.63	8.e-4
GW	16	5	5.5	-1.63	26.63	5.5	-1.63	23.37	8.e-4
GE	0
EK
LD	5	1	0	0	2.5e7	0
LD	5	2	0	0	2.5e7	0
LD	5	3	0	0	2.5e7	0
LD	5	4	0	0	2.5e7	0
LD	5	5	0	0	2.5e7	0
LD	5	6	0	0	2.5e7	0
LD	5	7	0	0	2.5e7	0
LD	5	8	0	0	2.5e7	0
LD	5	9	0	0	2.5e7	0
LD	5	10	0	0	2.5e7	0
LD	5	11	0	0	2.5e7	0
LD	5	12	0	0	2.5e7	0
LD	5	13	0	0	2.5e7	0
LD	5	14	0	0	2.5e7	0
LD	5	15	0	0	2.5e7	0
LD	5	16	0	0	2.5e7	0
EX	0	1	4	0	1	0
GN	3	0	0	0	13	0.005
FR	0	1	0	0	21.05	0
