CM 
CE
SY freq=24.9	'14.15 18.08 21.2 24.9
SY H=25
SY TL=50
SY L1=10.16
SY L2=8.08
SY L3=7.03
SY L4=6.02
SY s=0.2
GW	1	19	0	-L1/2	H	0	L1/2	H	10e-3
GW	2	17	0	-L2/2	H-s	0	L2/2	H-s	10e-3
GW	3	15	0	-L3/2	H+s	0	L3/2	H+s	10e-3
GW	4	13	0	-L4/2	H-2*s	0	L4/2	H-2*s	10e-3
GE	1
LD	5	0	0	0	24900000
GN	2	0	0	0	17	0.015
EK
EX	0	1	10	0	1	0	0
TL	1	10	2	9	TL	s	0	0	0	0
TL	1	10	3	8	TL	s	0	0	0	0
TL	2	9	4	7	TL	s	0	0	0	0
FR	0	0	0	0	freq	0
EN
