CM 5-band quad: .174wl sp, converted with 4nec2 on 29-Mar-06 21:31
CE
SY F=14.05
SY H=25
SY L1=10.32037
SY L2=7.868576
SY L3=6.771929
SY L4=6
SY L5=5
SY S=0.510731
SY S1=0.408074
GW	1	9	0	-L3/2	H	0	L3/2	H	10e-3
GW	2	2	0	L3/2	H	0	L1/2	H	10e-3
GW	3	2	0	-L3/2	H	0	-L1/2	H	10e-3
GW	4	9	-S	-L2/2	H	-S	L2/2	H	10e-3
GW	5	7	S1	-L4/2	H	S1	L4/2	H	10e-3
GW	6	1	S1	L4/2	H	S1	L3/2	H	10e-3
GW	7	1	S1	-L4/2	H	S1	-L3/2	H	10e-3
GE	1
LD	5	0	0	0	24900000
GN	2	0	0	0	13	0.005
EK
EX	0	1	5	0	1	0	0
FR	0	0	0	0	F	0
EN
