CM 
CE
SY freq=3.525
SY A=10
SY H=10
SY S=140
SY L=41.8
SY XL=2*3.14*freq*L
SY Q=100
SY RL=XL/Q
GW	1	1	0	-0.15	A	0	0.15	A	2e-3
GW	2	30	0	0.15	A	0	H*sin(S/2)	A-H*cos(S/2)	2e-3
GW	3	30	0	-0.15	A	0	-H*sin(S/2)	A-H*cos(S/2)	2e-3
GE	1
LD	5	0	0	0	58000000
LD	0	2	15	15	RL	L*1e-6
LD	0	3	15	15	RL	L*1e-6
GN	2	0	0	0	50	0.05
EK
EX	0	1	1	0	1	0	0
FR	0	0	0	0	freq	0
EN
