CM 
CE
SY freq=3.525
SY L14=85.05/4
SY H=10
SY W=0.3
SY L=L14-H
GW	1	1	0	0	0	0	0	0.1	0.8e-3
GW	2	3	0	0	0.1	0	0.5*W	0.1+0.5*W/0.58	0.8e-3
GW	3	3	0	0	0.1	0	-0.5*W	0.1+0.5*W/0.58	0.8e-3
GW	4	30	0	0.5*W	0.1+0.5*W/0.58	0	0.5*W	H-0.5*W/0.58	0.8e-3
GW	5	30	0	-0.5*W	0.1+0.5*W/0.58	0	-0.5*W	H-0.5*W/0.58	0.8e-3
GW	6	3	0	0.5*W	H-0.5*W/0.58	0	0	H	0.8e-3
GW	7	3	0	-0.5*W	H-0.5*W/0.58	0	0	H	0.8e-3
GE	1
LD	5	0	0	0	58000000
GN	0	64	0	0	17	0.015	10	1.e-3
EK
EX	0	1	1	0	1	0	0
FR	0	0	0	0	freq	0
EN
