CM 
CE
SY freq=3.575
SY H=24
SY L=19.66236
SY wrad=0.0015/2	'diameter=1.5 mm
SY irad=2*wrad	'diameter=3 mm
GW	1	39	0	-L	H	0	L	H	wrad
GE	1
LD	5	0	0	0	58000000
LD	7	0	0	0	4.5	irad
GN	2	0	0	0	17	0.015
EK
EX	0	1	20	0	1	0	0
FR	0	0	0	0	freq	0
EN
