CM 
CE
SY freq=21.1
SY L1=20
SY L2=10
SY L3=7
SY T1=15
SY T2=0
SY T3=-15
GW	1	3	0	0	1	0	0	1.5	0.001
GW	2	10	0	0	1.5	0	L1*sin(T1)	L1*cos(T1)+0.5+1	0.001
GW	3	10	0	0	1.5	0	L2*sin(T2)	L2*cos(T2)+0.5+1	0.001
GW	4	10	0	0	1.5	0	L3*sin(T3)	L3*cos(T3)+0.5+1	0.001
GW	5	5	0	0	1	0	2	1	0.001
GE	1
LD	5	0	0	0	58000000
GN	2	0	0	0	17	0.015
EK
EX	0	1	1	0	1	0	0
FR	0	0	0	0	freq	0
EN
