CM 
CE
SY freq=14.15
SY H=10
SY L1=10.08217
SY L2=10.58076
SY S=2.983216
SY Nhor=4
SY Nver=4
SY Shor=15
SY Sver=10
GW	1	1	S/2	1	H	S/2	-1	H	0.001
GW	2	4	S/2	-L1/2	H	S/2	-1	H	0.001
GW	3	4	S/2	L1/2	H	S/2	1	H	0.001
GM	3	Nver-1	0	0	0	0	0	Sver	1
GM	12	Nhor-1	0	0	0	0	Shor	0	1
GM	0	0	0	0	0	0	-Shor*(Nhor-1)/2	0	1
GW	49	66	-S/2	-28.5	H-2	-S/2	28.5	H-2	0.001
GM	49	34	0	0	0	0	0	1	49
GE	-1
LD	5	0	0	0	58000000
GN	2	0	0	0	17	0.015
EK
EX	0	1	6	0	1	0	0
EX	0	4	6	0	1	0	0
EX	0	7	6	0	1	0	0
EX	0	10	6	0	1	0	0
EX	0	13	6	0	1	0	0
EX	0	16	6	0	1	0	0
EX	0	19	6	0	1	0	0
EX	0	22	6	0	1	0	0
EX	0	25	6	0	1	0	0
EX	0	28	6	0	1	0	0
EX	0	31	6	0	1	0	0
EX	0	34	6	0	1	0	0
EX	0	37	6	0	1	0	0
EX	0	40	6	0	1	0	0
EX	0	43	6	0	1	0	0
EX	0	46	6	0	1	0	0
FR	0	0	0	0	14.15	0
EN
