CM 
CE
GW	1	9	0	0	4	0	0	13.970543	8.e-4
GW	2	11	0	0	4	10.4	0	4	8.e-4
GW	3	11	0	0	4	-10.4	0	4	8.e-4
GW	4	11	0	0	4	0	10.4	4	8.e-4
GW	5	11	0	0	4	0	-10.4	4	8.e-4
GW	6	21	0	0	0.05	4.09689676	20.5964909	0.05	8.e-4
GW	7	21	0	0	0.05	8.03635208	19.4014702	0.05	8.e-4
GW	8	21	0	0	0.05	11.6669749	17.4608619	0.05	8.e-4
GW	9	21	0	0	0.05	14.8492424	14.8492424	0.05	8.e-4
GW	10	21	0	0	0.05	17.4608619	11.6669749	0.05	8.e-4
GW	11	21	0	0	0.05	19.4014702	8.03635208	0.05	8.e-4
GW	12	21	0	0	0.05	20.5964909	4.09689676	0.05	8.e-4
GW	13	21	0	0	0.05	21	0	0.05	8.e-4
GW	14	21	0	0	0.05	20.5964909	-4.0968968	0.05	8.e-4
GW	15	21	0	0	0.05	19.4014702	-8.0363521	0.05	8.e-4
GW	16	21	0	0	0.05	17.4608619	-11.666975	0.05	8.e-4
GW	17	21	0	0	0.05	14.8492424	-14.849242	0.05	8.e-4
GW	18	21	0	0	0.05	11.6669749	-17.460862	0.05	8.e-4
GW	19	21	0	0	0.05	8.03635208	-19.40147	0.05	8.e-4
GW	20	21	0	0	0.05	4.09689676	-20.596491	0.05	8.e-4
GW	21	21	0	0	0.05	0	-21	0.05	8.e-4
GW	22	21	0	0	0.05	-4.0968968	-20.596491	0.05	8.e-4
GW	23	21	0	0	0.05	-8.0363521	-19.40147	0.05	8.e-4
GW	24	21	0	0	0.05	-11.666975	-17.460862	0.05	8.e-4
GW	25	21	0	0	0.05	-14.849242	-14.849242	0.05	8.e-4
GW	26	21	0	0	0.05	-17.460862	-11.666975	0.05	8.e-4
GW	27	21	0	0	0.05	-19.40147	-8.0363521	0.05	8.e-4
GW	28	21	0	0	0.05	-20.596491	-4.0968968	0.05	8.e-4
GW	29	21	0	0	0.05	-21	0	0.05	8.e-4
GW	30	21	0	0	0.05	-20.596491	4.09689676	0.05	8.e-4
GW	31	21	0	0	0.05	-19.40147	8.03635208	0.05	8.e-4
GW	32	21	0	0	0.05	-17.460862	11.6669749	0.05	8.e-4
GW	33	21	0	0	0.05	-14.849242	14.8492424	0.05	8.e-4
GW	34	21	0	0	0.05	-11.666975	17.4608619	0.05	8.e-4
GW	35	21	0	0	0.05	-8.0363521	19.4014702	0.05	8.e-4
GW	36	21	0	0	0.05	-4.0968968	20.5964909	0.05	8.e-4
GW	37	21	0	0	0.05	0	21	0.05	8.e-4
GE	-1
LD	5	0	0	0	58000000
LD	2	0	0	0	0	1.74387e-7
GN	2	0	0	0	17	0.015
EK
EX	0	1	1	0	1	0	0	0
FR	0	0	0	0	7.1	0
EN
