CM 
CE
SY freq=28.4	'14.2 21.2 28.3
SY H=25
SY TL=135
SY S=1.33
SY K=-0.1
GW	6	11	S*5	-1.9-K	H	S*5	1.9+K	H	10e-3
GW	1	11	S*4	-2.1-K	H	S*4	2.1+K	H	10e-3
GW	2	11	S*3	-2.3-K	H	S*3	2.3+K	H	10e-3
GW	3	11	S*2	-2.5-K	H	S*2	2.5+K	H	10e-3
GW	4	11	S	-2.7-K	H	S	2.7+K	H	10e-3
GW	5	11	0	-2.9-K	H	0	2.9+K	H	10e-3
GE	1
LD	5	0	0	0	24900000
GN	2	0	0	0	17	0.015
EK
EX	0	1	6	0	1	0	0
TL	1	6	2	6	-TL	S	0	0	0	0
TL	2	6	3	6	-TL	S	0	0	0	0
TL	3	6	4	6	-TL	S	0	0	0	0
TL	4	6	5	6	-TL	S	0	0	0	0
FR	0	0	0	0	freq	0
EN
