CM 
CE
SY freq=28.4	'14.2 21.2 28.3
SY H=25
SY TL=-50
SY S=1.4	'1.4
SY L1=4.7	'4
SY DL=0.35	'0.35
GW	1	9	0	-L1/2	H	0	L1/2	H	10e-3
GW	2	11	-S	(-L1/2)-DL	H	-S	(L1/2)+DL	H	10e-3
GW	3	13	-2*S	(-L1/2)-(2*DL)	H	-2*S	(L1/2)+(2*DL)	H	10e-3
GW	4	15	-3*S	(-L1/2)-(3*DL)	H	-3*S	(L1/2)+(3*DL)	H	10e-3
GW	5	17	-4*S	(-L1/2)-(4*DL)	H	-4*S	(L1/2)+(4*DL)	H	10e-3
GW	6	19	-5*S	(-L1/2)-(5*DL)	H	-5*S	(L1/2)+(5*DL)	H	10e-3
GE	1
LD	5	0	0	0	24900000
GN	2	0	0	0	17	0.015
EK
EX	0	1	5	0	1	0	0
TL	1	5	2	6	TL	S	0	0	0	0
TL	2	6	3	7	TL	S	0	0	0	0
TL	3	7	4	8	TL	S	0	0	0	0
TL	4	8	5	9	TL	S	0	0	0	0
TL	5	9	6	10	TL	S	0	0	0	0
FR	0	0	0	0	freq	0
EN
