CM 
CE
SY freq=7.1
SY W=2
SY H=3
SY g=0.1
SY s=0.5
SY C=71.94219
GW	1	9	W/2	0	H+W	W/2	0	H	0.02
GW	2	9	-W/2	0	H+W	-W/2	0	H	0.02
GW	3	9	-W/2	0	H+W	W/2	0	H+W	0.02
GW	4	9	-W/2	0	H	W/2	0	H	0.02
GE	1
LD	5	0	0	0	58000000
LD	0	3	5	0	0	0	C*1e-12
GN	2	0	0	0	17	0.015
EK
EX	0	4	5	0	1	0	0
FR	0	0	0	0	freq	0
EN
