CM 
CE
SY freq=14.2	'14.2 21.2 28.3
SY H=25
SY TL=100
SY E10=2.6
SY E15=3.48
SY E20=5.41
GW	4	5	0	0	H	0	1.15	H	12.5e-3	'R20
GW	5	5	0.5	0	H	0.5	1.15	H	8e-3	'R10
GW	6	5	1	0	H	1	1.15	H	10e-3	'R15
GW	10	5	3.95	0	H	3.95	1.15	H	8e-3	'D10a
GW	11	5	4.5	0	H	4.5	1.15	H	8e-3	'D10b
GW	12	5	5.1	0	H	5.1	1.15	H	12.5e-3	'D20
GW	13	5	5.58	0	H	5.58	1.15	H	10e-3	'D15
GW	14	5	6.06	0	H	6.06	1.15	H	8e-3	'D10c
GW	15	5	0	1.15	H	0	2.5	H	10e-3	'R20
GW	16	5	0	2.5	H	0	3.95	H	8e-3	'R20
GW	17	5	0	3.95	H	0	5.48	H	6e-3	'R20
GW	18	5	0.5	1.15	H	0.5	2.68	H	6e-3	'R10
GW	19	5	1	1.15	H	1	2.2	H	8e-3	'R15
GW	20	5	1	2.2	H	1	3.6	H	6e-3	'R15
GW	21	5	2.2	1.15	H	2.2	E10	H	6e-3	'S10
GW	22	5	2.8	1.15	H	2.8	2.5	H	10e-3	'S20
GW	23	5	2.8	2.5	H	2.8	3.95	H	8e-3	'S20
GW	24	5	2.8	3.95	H	2.8	E20	H	6e-3	'S20
GW	25	5	3.4	1.15	H	3.4	2.2	H	8e-3	'S15
GW	26	5	3.4	2.2	H	3.4	E15	H	6e-3	'S15
GW	27	5	3.95	1.15	H	3.95	2.44	H	6e-3	'D10a
GW	28	5	4.5	1.15	H	4.5	2.44	H	6e-3	'D10b
GW	29	5	6.06	1.15	H	6.06	2.44	H	6e-3	'D10c
GW	30	5	5.1	1.15	H	5.1	2.5	H	10e-3	'D20
GW	31	5	5.1	2.5	H	5.1	3.95	H	8e-3	'D20
GW	32	5	5.1	3.95	H	5.1	4.93	H	6e-3	'D20
GW	33	5	5.58	1.15	H	5.58	2.2	H	8e-3	'D15
GW	34	5	5.58	2.2	H	5.58	3.34	H	6e-3	'D15
GX	1	010
GW	1	11	2.8	-1.15	H	2.8	1.15	H	12.5e-3	'S20
GW	2	11	2.2	-1.15	H	2.2	1.15	H	8e-3	'S10
GW	3	11	3.4	-1.15	H	3.4	1.15	H	10e-3	'S15
GE	1
LD	5	0	0	0	24900000
GN	2	0	0	0	17	0.015
EK
EX	0	1	6	0	1	0	0
TL	1	6	2	6	TL	0.6	0	0	0	0
TL	1	6	3	6	TL	0.6	0	0	0	0
FR	0	0	0	0	freq	0
EN
