CM Unnamed, converted with 4nec2 on 10-Jun-18 2:40
CE
GW	1	3	-0.9	-7.e-3	25	-0.9	-1.157	25	8.e-3
GW	2	3	-0.9	-1.157	25	-0.9	-2.63	25	6.e-3
GW	3	3	-0.9	7.e-3	25	-0.9	1.157	25	8.e-3
GW	4	3	-0.9	1.157	25	-0.9	2.63	25	6.e-3
GW	5	3	-2.5	-2.68	25	-2.5	-1.15	25	6.e-3
GW	6	5	-2.5	-1.15	25	-2.5	1.15	25	8.e-3
GW	7	3	-2.5	1.15	25	-2.5	2.68	25	6.e-3
GW	8	3	0.85	-2.44	25	0.85	-1.15	25	6.e-3
GW	9	5	0.85	-1.15	25	0.85	1.15	25	8.e-3
GW	10	3	0.85	1.15	25	0.85	2.44	25	6.e-3
GW	11	3	1.4	-2.44	25	1.4	-1.15	25	6.e-3
GW	12	5	1.4	-1.15	25	1.4	1.15	25	8.e-3
GW	13	3	1.4	1.15	25	1.4	2.44	25	6.e-3
GW	14	3	2.96	-2.44	25	2.96	-1.15	25	6.e-3
GW	15	5	2.96	-1.15	25	2.96	1.15	25	8.e-3
GW	16	3	2.96	1.15	25	2.96	2.44	25	6.e-3
GW	17	3	-3	-5.48	25	-3	-3.95	25	6.e-3
GW	18	3	-3	-3.95	25	-3	-2.5	25	8.e-3
GW	19	3	-3	-2.5	25	-3	-1.15	25	0.01
GW	20	5	-3	-1.15	25	-3	1.15	25	0.0125
GW	21	3	-3	1.15	25	-3	2.5	25	0.01
GW	22	3	-3	2.5	25	-3	3.95	25	8.e-3
GW	23	3	-3	3.95	25	-3	5.48	25	6.e-3
GW	24	3	-2	-3.6	25	-2	-2.2	25	6.e-3
GW	25	3	-2	-2.2	25	-2	-1.15	25	8.e-3
GW	26	5	-2	-1.15	25	-2	1.15	25	0.01
GW	27	3	-2	1.15	25	-2	2.2	25	8.e-3
GW	28	3	-2	2.2	25	-2	3.6	25	6.e-3
GW	29	3	0.3	-7.e-3	25	0.3	-1.157	25	0.01
GW	30	3	0.3	-1.157	25	0.3	-2.207	25	8.e-3
GW	31	3	0.3	-2.207	25	0.3	-3.475	25	6.e-3
GW	32	3	0.3	7.e-3	25	0.3	1.157	25	0.01
GW	33	3	0.3	1.157	25	0.3	2.207	25	8.e-3
GW	34	3	0.3	2.207	25	0.3	3.475	25	6.e-3
GW	35	3	2.48	-3.34	25	2.48	-2.2	25	6.e-3
GW	36	3	2.48	-2.2	25	2.48	-1.15	25	8.e-3
GW	37	5	2.48	-1.15	25	2.48	1.15	25	0.01
GW	38	3	2.48	1.15	25	2.48	2.2	25	8.e-3
GW	39	3	2.48	2.2	25	2.48	3.34	25	6.e-3
GW	40	3	-0.3	-7.e-3	25	-0.3	-1.157	25	0.0125
GW	41	3	-0.3	-1.157	25	-0.3	-2.507	25	0.01
GW	42	3	-0.3	-2.507	25	-0.3	-3.957	25	8.e-3
GW	43	3	-0.3	-3.957	25	-0.3	-5.42	25	6.e-3
GW	44	3	-0.3	7.e-3	25	-0.3	1.157	25	0.0125
GW	45	3	-0.3	1.157	25	-0.3	2.507	25	0.01
GW	46	3	-0.3	2.507	25	-0.3	3.957	25	8.e-3
GW	47	3	-0.3	3.957	25	-0.3	5.42	25	6.e-3
GW	48	3	2	-4.93	25	2	-3.95	25	6.e-3
GW	49	3	2	-3.95	25	2	-2.5	25	8.e-3
GW	50	3	2	-2.5	25	2	-1.15	25	0.01
GW	51	5	2	-1.15	25	2	1.15	25	0.0125
GW	52	3	2	1.15	25	2	2.5	25	0.01
GW	53	3	2	2.5	25	2	3.95	25	8.e-3
GW	54	3	2	3.95	25	2	4.93	25	6.e-3
GW	55	1	-0.3	-7.e-3	25	-0.3	7.e-3	25	5.e-3
GW	56	3	-0.3	-7.e-3	25	0.3	-7.e-3	25	0.01
GW	57	3	-0.3	7.e-3	25	0.3	7.e-3	25	0.01
GW	58	3	-0.3	-7.e-3	25	-0.9	-7.e-3	25	0.01
GW	59	3	-0.3	7.e-3	25	-0.9	7.e-3	25	0.01
GW	60	13	-3	0	24.93	2.96	0	24.93	0.05
GE	0
EK
LD	5	1	0	0	2.5e7	0
LD	5	2	0	0	2.5e7	0
LD	5	3	0	0	2.5e7	0
LD	5	4	0	0	2.5e7	0
LD	5	5	0	0	2.5e7	0
LD	5	6	0	0	2.5e7	0
LD	5	7	0	0	2.5e7	0
LD	5	8	0	0	2.5e7	0
LD	5	9	0	0	2.5e7	0
LD	5	10	0	0	2.5e7	0
LD	5	11	0	0	2.5e7	0
LD	5	12	0	0	2.5e7	0
LD	5	13	0	0	2.5e7	0
LD	5	14	0	0	2.5e7	0
LD	5	15	0	0	2.5e7	0
LD	5	16	0	0	2.5e7	0
LD	5	17	0	0	2.5e7	0
LD	5	18	0	0	2.5e7	0
LD	5	19	0	0	2.5e7	0
LD	5	20	0	0	2.5e7	0
LD	5	21	0	0	2.5e7	0
LD	5	22	0	0	2.5e7	0
LD	5	23	0	0	2.5e7	0
LD	5	24	0	0	2.5e7	0
LD	5	25	0	0	2.5e7	0
LD	5	26	0	0	2.5e7	0
LD	5	27	0	0	2.5e7	0
LD	5	28	0	0	2.5e7	0
LD	5	29	0	0	2.5e7	0
LD	5	30	0	0	2.5e7	0
LD	5	31	0	0	2.5e7	0
LD	5	32	0	0	2.5e7	0
LD	5	33	0	0	2.5e7	0
LD	5	34	0	0	2.5e7	0
LD	5	35	0	0	2.5e7	0
LD	5	36	0	0	2.5e7	0
LD	5	37	0	0	2.5e7	0
LD	5	38	0	0	2.5e7	0
LD	5	39	0	0	2.5e7	0
LD	5	40	0	0	2.5e7	0
LD	5	41	0	0	2.5e7	0
LD	5	42	0	0	2.5e7	0
LD	5	43	0	0	2.5e7	0
LD	5	44	0	0	2.5e7	0
LD	5	45	0	0	2.5e7	0
LD	5	46	0	0	2.5e7	0
LD	5	47	0	0	2.5e7	0
LD	5	48	0	0	2.5e7	0
LD	5	49	0	0	2.5e7	0
LD	5	50	0	0	2.5e7	0
LD	5	51	0	0	2.5e7	0
LD	5	52	0	0	2.5e7	0
LD	5	53	0	0	2.5e7	0
LD	5	54	0	0	2.5e7	0
LD	5	55	0	0	2.5e7	0
LD	5	56	0	0	2.5e7	0
LD	5	57	0	0	2.5e7	0
LD	5	58	0	0	2.5e7	0
LD	5	59	0	0	2.5e7	0
LD	5	60	0	0	2.5e7	0
EX	0	55	1	0	1	0
GN	3	0	0	0	13	0.005
FR	0	1	0	0	28.2	0
