CM 
CE
SY freq=14.2	'14.2 21.2 28.3
SY H=25
SY TL=100
SY E10=2.58
SY E15=3.39
SY E20=5.41
SY s=2.5e-2
GW	2	10	0	0	H	0	1.15	H	12.5e-3	'R20
GW	3	10	0.5	0	H	0.5	1.15	H	8e-3	'R10
GW	4	10	1	0	H	1	1.15	H	10e-3	'R15
GW	8	10	3.95	0	H	3.95	1.15	H	8e-3	'D10a
GW	9	10	4.5	0	H	4.5	1.15	H	8e-3	'D10b
GW	10	10	5.1	0	H	5.1	1.15	H	12.5e-3	'D20
GW	11	10	5.58	0	H	5.58	1.15	H	10e-3	'D15
GW	12	10	6.06	0	H	6.06	1.15	H	8e-3	'D10c
GW	13	10	0	1.15	H	0	2.5	H	10e-3	'R20
GW	14	10	0	2.5	H	0	3.95	H	8e-3	'R20
GW	15	10	0	3.95	H	0	5.48	H	6e-3	'R20
GW	16	10	0.5	1.15	H	0.5	2.68	H	6e-3	'R10
GW	17	10	1	1.15	H	1	2.2	H	8e-3	'R15
GW	18	10	1	2.2	H	1	3.6	H	6e-3	'R15
GW	19	10	2.2	1.15	H	2.2	E10	H	6e-3	'S10
GW	20	10	2.8	1.15	H	2.8	2.5	H	10e-3	'S20
GW	21	10	2.8	2.5	H	2.8	3.95	H	8e-3	'S20
GW	22	10	2.8	3.95	H	2.8	E20	H	6e-3	'S20
GW	23	10	3.4	1.15	H	3.4	2.2	H	8e-3	'S15
GW	24	10	3.4	2.2	H	3.4	E15	H	6e-3	'S15
GW	25	10	3.95	1.15	H	3.95	2.44	H	6e-3	'D10a
GW	26	10	4.5	1.15	H	4.5	2.44	H	6e-3	'D10b
GW	27	10	6.06	1.15	H	6.06	2.44	H	6e-3	'D10c
GW	28	10	5.1	1.15	H	5.1	2.5	H	10e-3	'D20
GW	29	10	5.1	2.5	H	5.1	3.95	H	8e-3	'D20
GW	30	10	5.1	3.95	H	5.1	4.93	H	6e-3	'D20
GW	31	10	5.58	1.15	H	5.58	2.2	H	8e-3	'D15
GW	32	10	5.58	2.2	H	5.58	3.34	H	6e-3	'D15
GW	33	10	2.8	s/2	H	2.8	1.15	H	12.5e-3	'S20
GW	34	10	2.2	s/2	H	2.2	1.15	H	8e-3	'S10
GW	35	10	3.4	s/2	H	3.4	1.15	H	10e-3	'S15
GW	36	5	2.8	s/2	H	2.2	s/2	H	10e-3	'PhL
GW	37	5	2.8	s/2	H	3.4	s/2	H	10e-3	'PhL
GX	1	010
GW	1	1	2.8	s/2	H	2.8	-s/2	H	8e-3	'FP
GE	1
LD	5	0	0	0	24900000
GN	2	0	0	0	17	0.015
EK
EX	0	1	1	0	1	0	0
FR	0	0	0	0	freq	0
EN
