CM 
CE
SY freq=145.6
SY wrad=0.5*2.5*1e-3
SY D=1
SY R=1.062
SY Dir=0.936
SY RD=0.25
SY DDir=0.25
SY h=2
GW	1	19	0	-D/2	h	0	D/2	h	wrad
GW	2	19	-RD	-R/2	h	-RD	R/2	h	wrad
GW	3	19	DDir	-Dir/2	h	DDir	Dir/2	h	wrad
GE	1
GN	2	0	0	0	17	0.015
EK
EX	0	1	10	0	1	0	0
FR	0	0	0	0	freq	0
EN
