CM 
CE
SY freq=3.75
SY L=19.906
SY H=3
SY D=20
SY ind=2.2
SY cap=1400
GW	1	19	0	0	H	0	0	H+L	0.001
GW	2	19	0	0	H	0	L	H	0.001
GW	3	19	0	0	H	0	-L	H	0.001
GW	4	19	D	0	H	D	0	H+L	0.001
GW	5	19	D	0	H	D	L	H	0.001
GW	6	19	D	0	H	D	-L	H	0.001
GE	1
LD	5	0	0	0	58000000
LD	0	1	1	0	0	ind*1e-6
LD	0	4	1	0	0	0	cap*1e-12
GN	2	0	0	0	17	0.015
EK
EX	0	1	1	0	1	0	0
EX	0	4	1	0	-1	0	0
FR	0	0	0	0	freq	0
EN
