CM 
CE
SY freq=3.5
SY H=22
SY S=0.5
SY L=20
SY X_off=0
SY Y_off=0
SY Z_off=0
GW	1	7	0	-0.1732051	0	0	-0.1732051	4	4.e-3
GW	2	7	-0.15	0.086603	0	-0.15	0.086603	4	4.e-3
GW	3	7	0.15	0.086603	0	0.15	0.086603	4	4.e-3
GW	4	1	0	-0.1732051	4	-0.15	0.086603	4	4.e-3
GW	5	1	-0.15	0.086603	4	0.15	0.086603	4	4.e-3
GW	6	1	0.15	0.086603	4	0	-0.1732051	4	4.e-3
GW	7	7	0	-0.1732051	4	0	-0.1732051	8	4.e-3
GW	8	7	-0.15	0.086603	4	-0.15	0.086603	8	4.e-3
GW	9	7	0.15	0.086603	4	0.15	0.086603	8	4.e-3
GW	10	1	0	-0.1732051	8	-0.15	0.086603	8	4.e-3
GW	11	1	-0.15	0.086603	8	0.15	0.086603	8	4.e-3
GW	12	1	0.15	0.086603	8	0	-0.1732051	8	4.e-3
GW	13	7	0	-0.1732051	8	0	-0.1732051	12	4.e-3
GW	14	7	-0.15	0.086603	8	-0.15	0.086603	12	4.e-3
GW	15	7	0.15	0.086603	8	0.15	0.086603	12	4.e-3
GW	16	1	0	-0.1732051	12	-0.15	0.086603	12	4.e-3
GW	17	1	-0.15	0.086603	12	0.15	0.086603	12	4.e-3
GW	18	1	0.15	0.086603	12	0	-0.1732051	12	4.e-3
GW	19	7	0	-0.1732051	12	0	-0.1732051	16	4.e-3
GW	20	7	-0.15	0.086603	12	-0.15	0.086603	16	4.e-3
GW	21	7	0.15	0.086603	12	0.15	0.086603	16	4.e-3
GW	22	1	0	-0.1732051	16	-0.15	0.086603	16	4.e-3
GW	23	1	-0.15	0.086603	16	0.15	0.086603	16	4.e-3
GW	24	1	0.15	0.086603	16	0	-0.1732051	16	4.e-3
GW	25	7	0	-0.1732051	16	0	-0.1732051	20	4.e-3
GW	26	7	-0.15	0.086603	16	-0.15	0.086603	20	4.e-3
GW	27	7	0.15	0.086603	16	0.15	0.086603	20	4.e-3
GW	28	1	0	-0.1732051	20	-0.15	0.086603	20	4.e-3
GW	29	1	-0.15	0.086603	20	0.15	0.086603	20	4.e-3
GW	30	1	0.15	0.086603	20	0	-0.1732051	20	4.e-3
GW	31	7	0	-0.1732051	20	0	-0.1732051	24	4.e-3
GW	32	7	-0.15	0.086603	20	-0.15	0.086603	24	4.e-3
GW	33	7	0.15	0.086603	20	0.15	0.086603	24	4.e-3
GW	34	1	0	-0.1732051	24	-0.15	0.086603	24	4.e-3
GW	35	1	-0.15	0.086603	24	0.15	0.086603	24	4.e-3
GW	36	1	0.15	0.086603	24	0	-0.1732051	24	4.e-3
GW	37	9	0	-4	0	0	-0.1732051	4	4.e-3
GW	38	9	-3.4641016	2	0	-0.15	0.086603	4	4.e-3
GW	39	9	3.464102	2	0	0.15	0.086603	4	4.e-3
GW	40	13	0	-4	0	0	-0.1732051	8	4.e-3
GW	41	13	-3.4641016	2	0	-0.15	0.086603	8	4.e-3
GW	42	13	3.464102	2	0	0.15	0.086603	8	4.e-3
GW	43	19	0	-4	0	0	-0.1732051	12	4.e-3
GW	44	19	-3.4641016	2	0	-0.15	0.086603	12	4.e-3
GW	45	19	3.464102	2	0	0.15	0.086603	12	4.e-3
GW	46	23	0	-4	0	0	-0.1732051	16	4.e-3
GW	47	23	-3.4641016	2	0	-0.15	0.086603	16	4.e-3
GW	48	23	3.464102	2	0	0.15	0.086603	16	4.e-3
GW	49	29	0	-5	0	0	-0.1732051	20	4.e-3
GW	50	29	-4.330127	2.5	0	-0.15	0.086603	20	4.e-3
GW	51	29	4.330127	2.5	0	0.15	0.086603	20	4.e-3
GW	52	35	0	-5	0	0	-0.1732051	24	4.e-3
GW	53	35	-4.330127	2.5	0	-0.15	0.086603	24	4.e-3
GW	54	35	4.330127	2.5	0	0.15	0.086603	24	4.e-3
GW	55	3	0	-0.1732051	24	0	-0.1732051	25	4.e-3
GW	56	3	-0.15	0.086603	24	-0.15	0.086603	25	4.e-3
GW	57	3	0.15	0.086603	24	0.15	0.086603	25	4.e-3
GW	58	1	0	-0.1732051	25	-0.15	0.086603	25	4.e-3
GW	59	1	-0.15	0.086603	25	0.15	0.086603	25	4.e-3
GW	60	1	0.15	0.086603	25	0	-0.1732051	25	4.e-3
GW	64	1	0	-0.1732051	25	0	0	25.5	0.01
GW	65	7	0	0	25.5	0	0	29.5	0.025
GW	66	3	0	0	25.5	0	-2	25.5	0.025
GW	67	3	0	0	25.5	0	2	25.5	0.025
GW	68	5	0	-2	25.5	-3	-2	25.5	0.025
GW	69	3	0	-2	25.5	2	-2	25.5	0.025
GW	70	5	0	2	25.5	-3	2	25.5	0.025
GW	71	3	0	2	25.5	2	2	25.5	0.025
GW	100	10	S+X_off	S+Y_off	H+Z_off	S+X_off	S+Y_off	H-L+Z_off	0.001
GW	101	10	S+X_off	-S+Y_off	H+Z_off	S+X_off	-S+Y_off	H-L+Z_off	0.001
GW	102	10	-S+X_off	S+Y_off	H+Z_off	-S+X_off	S+Y_off	H-L+Z_off	0.001
GW	103	10	-S+X_off	-S+Y_off	H+Z_off	-S+X_off	-S+Y_off	H-L+Z_off	0.001
GW	104	1	S+X_off	S+Y_off	H+Z_off	S+X_off	-S+Y_off	H+Z_off	0.001
GW	105	1	S+X_off	-S+Y_off	H+Z_off	-S+X_off	-S+Y_off	H+Z_off	0.001
GW	106	1	-S+X_off	-S+Y_off	H+Z_off	-S+X_off	S+Y_off	H+Z_off	0.001
GW	107	1	-S+X_off	S+Y_off	H+Z_off	S+X_off	S+Y_off	H+Z_off	0.001
GW	104	1	S+X_off	S+Y_off	H-L+Z_off	S+X_off	-S+Y_off	H-L+Z_off	0.001
GW	105	1	S+X_off	-S+Y_off	H-L+Z_off	-S+X_off	-S+Y_off	H-L+Z_off	0.001
GW	106	1	-S+X_off	-S+Y_off	H-L+Z_off	-S+X_off	S+Y_off	H-L+Z_off	0.001
GW	107	1	-S+X_off	S+Y_off	H-L+Z_off	S+X_off	S+Y_off	H-L+Z_off	0.001
GW	108	3	S+X_off	S+Y_off	H-L-2*S+Z_off	S+X_off	S+Y_off	H-L+Z_off	0.001
GW	110	10	S+X_off	S+Y_off	H-L-2*S+Z_off	5+X_off+S	6+Y_off+S	1	0.001
GW	111	10	S+X_off	S+Y_off	H-L-2*S+Z_off	5+X_off+S	-6+Y_off+S	1	0.001
GW	112	10	S+X_off	S+Y_off	H-L-2*S+Z_off	-5+X_off+S	6+Y_off+S	1	0.001
GW	113	10	S+X_off	S+Y_off	H-L-2*S+Z_off	-5+X_off+S	-6+Y_off+S	1	0.001
GE	1
LD	5	0	0	0	58000000
GN	2	0	0	0	17	0.015
EK
EX	0	108	1	0	1	0	0
FR	0	0	0	0	freq	0
EN
