CM 
CE
SY freq=7.1
SY H=9.84836
SY TL=640
SY RN=64
SY RL=TL/RN
GW	1	20	0	0	0	0	0	H	0.0008
GE	1
LD	5	0	0	0	58000000
LD	7	0	0	0	4.5	0.0018
GN	0	RN	0	0	13	0.005	RL	1.e-3
EK
EX	0	1	1	0	1	0	0
FR	0	0	0	0	freq	0
EN
