CM 
CE
SY Tloss=1
SY Tseg=25
SY Freq=7.1
SY H=12
SY B=7
SY R=7.7578
SY X=1
SY Y=0
GW	1	Tseg	0	0	0	0	0	25	0.1
GW	2	10	X	0	B	X	0	B+H	0.001
GW	3	10	X	0	B	X	-R	B	0.001
GW	4	10	X	0	B	X	R	B	0.001
GE	1
LD	5	0	0	0	58000000
LD	2	1	1	25	Tloss/Tseg
GN	2	0	0	0	17	0.015
EK
EX	0	2	1	0	1	0	0
FR	0	0	0	0	Freq	0
EN
