CM 
CE
GW	1	25	0	-2.709654	2	0	0	5.60104098	8.048e-4
GW	2	25	0	2.70965406	2	0	0	5.60104098	8.048e-4
GW	3	31	0	-2.709654	2	0	2.70965406	2	8.048e-4
GE	-1
LD	5	0	0	0	58000000
LD	2	0	0	0	0	1.63923e-7
GN	2	0	0	0	13	0.002
GD	1	0	0	0	17	0.015	3	150
EK
EX	0	1	6	0	1	0	0
FR	0	0	0	0	21.05	0
EN
