CM 
CE
GW	1	24	0	-2.693493	2	0	0	5.5795636	8.e-4
GW	2	24	0	2.6934931	2	0	0	5.5795636	8.e-4
GW	3	20	0	-2.693493	2	0	2.6934931	2	8.e-4
GW	4	25	0	0	0.01	1.46330747	7.35654343	0.01	8.e-4
GW	5	25	0	0	0.01	2.87038085	6.92971239	0.01	8.e-4
GW	6	25	0	0	0.01	4.16714711	6.23657638	0.01	8.e-4
GW	7	25	0	0	0.01	5.30377224	5.30377224	0.01	8.e-4
GW	8	25	0	0	0.01	6.23657638	4.16714711	0.01	8.e-4
GW	9	25	0	0	0.01	6.92971239	2.87038085	0.01	8.e-4
GW	10	25	0	0	0.01	7.35654343	1.46330747	0.01	8.e-4
GW	11	25	0	0	0.01	7.50066664	0	0.01	8.e-4
GW	12	25	0	0	0.01	7.35654343	-1.4633075	0.01	8.e-4
GW	13	25	0	0	0.01	6.92971239	-2.8703809	0.01	8.e-4
GW	14	25	0	0	0.01	6.23657638	-4.1671471	0.01	8.e-4
GW	15	25	0	0	0.01	5.30377224	-5.3037722	0.01	8.e-4
GW	16	25	0	0	0.01	4.16714711	-6.2365764	0.01	8.e-4
GW	17	25	0	0	0.01	2.87038085	-6.9297124	0.01	8.e-4
GW	18	25	0	0	0.01	1.46330747	-7.3565434	0.01	8.e-4
GW	19	25	0	0	0.01	0	-7.5006666	0.01	8.e-4
GW	20	25	0	0	0.01	-1.4633075	-7.3565434	0.01	8.e-4
GW	21	25	0	0	0.01	-2.8703809	-6.9297124	0.01	8.e-4
GW	22	25	0	0	0.01	-4.1671471	-6.2365764	0.01	8.e-4
GW	23	25	0	0	0.01	-5.3037722	-5.3037722	0.01	8.e-4
GW	24	25	0	0	0.01	-6.2365764	-4.1671471	0.01	8.e-4
GW	25	25	0	0	0.01	-6.9297124	-2.8703809	0.01	8.e-4
GW	26	25	0	0	0.01	-7.3565434	-1.4633075	0.01	8.e-4
GW	27	25	0	0	0.01	-7.5006666	0	0.01	8.e-4
GW	28	25	0	0	0.01	-7.3565434	1.46330747	0.01	8.e-4
GW	29	25	0	0	0.01	-6.9297124	2.87038085	0.01	8.e-4
GW	30	25	0	0	0.01	-6.2365764	4.16714711	0.01	8.e-4
GW	31	25	0	0	0.01	-5.3037722	5.30377224	0.01	8.e-4
GW	32	25	0	0	0.01	-4.1671471	6.23657638	0.01	8.e-4
GW	33	25	0	0	0.01	-2.8703809	6.92971239	0.01	8.e-4
GW	34	25	0	0	0.01	-1.4633075	7.35654343	0.01	8.e-4
GW	35	25	0	0	0.01	0	7.50066664	0.01	8.e-4
GE	-1
LD	5	0	0	0	58000000
LD	2	0	0	0	0	1.63923e-7
GN	2	0	0	0	17	0.015
EK
EX	0	1	5	0	1	0	0
FR	0	0	0	0	21.05	0
EN
