CM 
CE
SY freq=14.15
SY H=20
SY H2=35
GW	1	7	-4.5	-1.4835	H	-4.5	1.4835	H	0.015
GW	2	3	-4.5	-1.4835	H	-4.5	-2.8681	H	0.0125
GW	3	3	-4.5	-2.8681	H	-4.5	-4.2527	H	0.01
GW	4	3	-4.5	-4.2527	H	-4.5	-5.35049	H	0.008
GW	5	3	-4.5	1.4835	H	-4.5	2.8681	H	0.0125
GW	6	3	-4.5	2.8681	H	-4.5	4.2527	H	0.01
GW	7	3	-4.5	4.2527	H	-4.5	5.35049	H	0.008
GW	8	7	-0.92971	-1.4835	H	-0.92971	1.4835	H	0.015
GW	9	3	-0.92971	-1.4835	H	-0.92971	-2.8681	H	0.0125
GW	10	3	-0.92971	-2.8681	H	-0.92971	-4.2527	H	0.01
GW	11	2	-0.92971	-4.2527	H	-0.92971	-5.22192	H	0.008
GW	12	3	-0.92971	1.4835	H	-0.92971	2.8681	H	0.0125
GW	13	3	-0.92971	2.8681	H	-0.92971	4.2527	H	0.01
GW	14	2	-0.92971	4.2527	H	-0.92971	5.22192	H	0.008
GW	16	7	0.83071	-1.4835	H	0.83071	1.4835	H	0.015
GW	17	3	0.83071	-1.4835	H	0.83071	-2.8681	H	0.0125
GW	18	3	0.83071	-2.8681	H	0.83071	-4.2527	H	0.01
GW	19	1	0.83071	-4.2527	H	0.83071	-4.979615	H	0.008
GW	20	3	0.83071	1.4835	H	0.83071	2.8681	H	0.0125
GW	21	3	0.83071	2.8681	H	0.83071	4.2527	H	0.01
GW	22	1	0.83071	4.2527	H	0.83071	4.979615	H	0.008
GW	23	7	5.1922	-1.4835	H	5.1922	1.4835	H	0.015
GW	24	3	5.1922	-1.4835	H	5.1922	-2.8681	H	0.0125
GW	25	3	5.1922	-2.8681	H	5.1922	-4.2527	H	0.01
GW	26	1	5.1922	-4.2527	H	5.1922	-4.742255	H	0.008
GW	27	3	5.1922	1.4835	H	5.1922	2.8681	H	0.0125
GW	28	3	5.1922	2.8681	H	5.1922	4.2527	H	0.01
GW	29	1	5.1922	4.2527	H	5.1922	4.742255	H	0.008
GW	30	7	-4.5	-1.4835	H2	-4.5	1.4835	H2	0.015
GW	31	3	-4.5	-1.4835	H2	-4.5	-2.8681	H2	0.0125
GW	32	3	-4.5	-2.8681	H2	-4.5	-4.2527	H2	0.01
GW	33	3	-4.5	-4.2527	H2	-4.5	-5.35049	H2	0.008
GW	34	3	-4.5	1.4835	H2	-4.5	2.8681	H2	0.0125
GW	35	3	-4.5	2.8681	H2	-4.5	4.2527	H2	0.01
GW	36	3	-4.5	4.2527	H2	-4.5	5.35049	H2	0.008
GW	37	7	-0.92971	-1.4835	H2	-0.92971	1.4835	H2	0.015
GW	38	3	-0.92971	-1.4835	H2	-0.92971	-2.8681	H2	0.0125
GW	39	3	-0.92971	-2.8681	H2	-0.92971	-4.2527	H2	0.01
GW	40	2	-0.92971	-4.2527	H2	-0.92971	-5.22192	H2	0.008
GW	41	3	-0.92971	1.4835	H2	-0.92971	2.8681	H2	0.0125
GW	42	3	-0.92971	2.8681	H2	-0.92971	4.2527	H2	0.01
GW	43	2	-0.92971	4.2527	H2	-0.92971	5.22192	H2	0.008
GW	45	7	0.83071	-1.4835	H2	0.83071	1.4835	H2	0.015
GW	46	3	0.83071	-1.4835	H2	0.83071	-2.8681	H2	0.0125
GW	47	3	0.83071	-2.8681	H2	0.83071	-4.2527	H2	0.01
GW	48	1	0.83071	-4.2527	H2	0.83071	-4.979615	H2	0.008
GW	49	3	0.83071	1.4835	H2	0.83071	2.8681	H2	0.0125
GW	50	3	0.83071	2.8681	H2	0.83071	4.2527	H2	0.01
GW	51	1	0.83071	4.2527	H2	0.83071	4.979615	H2	0.008
GW	52	7	5.1922	-1.4835	H2	5.1922	1.4835	H2	0.015
GW	53	3	5.1922	-1.4835	H2	5.1922	-2.8681	H2	0.0125
GW	54	3	5.1922	-2.8681	H2	5.1922	-4.2527	H2	0.01
GW	55	1	5.1922	-4.2527	H2	5.1922	-4.742255	H2	0.008
GW	56	3	5.1922	1.4835	H2	5.1922	2.8681	H2	0.0125
GW	57	3	5.1922	2.8681	H2	5.1922	4.2527	H2	0.01
GW	58	1	5.1922	4.2527	H2	5.1922	4.742255	H2	0.008
GE	-1
LD	5	0	0	0	30800000
GN	2	0	0	0	17	0.015
EK
EX	0	8	4	0	1	0	0
EX	0	37	4	0	1	0	0
FR	0	0	0	0	14.15	0
EN
