CM 
CE
SY freq=14.15
SY H=20
GW	1	7	-4.5	-1.4835	H	-4.5	1.4835	H	0.015
GW	2	3	-4.5	-1.4835	H	-4.5	-2.8681	H	0.0125
GW	3	3	-4.5	-2.8681	H	-4.5	-4.2527	H	0.01
GW	4	3	-4.5	-4.2527	H	-4.5	-5.35049	H	0.008
GW	5	3	-4.5	1.4835	H	-4.5	2.8681	H	0.0125
GW	6	3	-4.5	2.8681	H	-4.5	4.2527	H	0.01
GW	7	3	-4.5	4.2527	H	-4.5	5.35049	H	0.008
GW	8	7	-0.92971	-1.4835	H	-0.92971	1.4835	H	0.015
GW	9	3	-0.92971	-1.4835	H	-0.92971	-2.8681	H	0.0125
GW	10	3	-0.92971	-2.8681	H	-0.92971	-4.2527	H	0.01
GW	11	2	-0.92971	-4.2527	H	-0.92971	-5.22192	H	0.008
GW	12	3	-0.92971	1.4835	H	-0.92971	2.8681	H	0.0125
GW	13	3	-0.92971	2.8681	H	-0.92971	4.2527	H	0.01
GW	14	2	-0.92971	4.2527	H	-0.92971	5.22192	H	0.008
GW	16	7	0.83071	-1.4835	H	0.83071	1.4835	H	0.015
GW	17	3	0.83071	-1.4835	H	0.83071	-2.8681	H	0.0125
GW	18	3	0.83071	-2.8681	H	0.83071	-4.2527	H	0.01
GW	19	1	0.83071	-4.2527	H	0.83071	-4.979615	H	0.008
GW	20	3	0.83071	1.4835	H	0.83071	2.8681	H	0.0125
GW	21	3	0.83071	2.8681	H	0.83071	4.2527	H	0.01
GW	22	1	0.83071	4.2527	H	0.83071	4.979615	H	0.008
GW	23	7	5.1922	-1.4835	H	5.1922	1.4835	H	0.015
GW	24	3	5.1922	-1.4835	H	5.1922	-2.8681	H	0.0125
GW	25	3	5.1922	-2.8681	H	5.1922	-4.2527	H	0.01
GW	26	1	5.1922	-4.2527	H	5.1922	-4.742255	H	0.008
GW	27	3	5.1922	1.4835	H	5.1922	2.8681	H	0.0125
GW	28	3	5.1922	2.8681	H	5.1922	4.2527	H	0.01
GW	29	1	5.1922	4.2527	H	5.1922	4.742255	H	0.008
GE	-1
LD	5	0	0	0	30800000
GN	2	0	0	0	17	0.015
EK
EX	0	8	4	0	1	0	0
FR	0	0	0	0	14.15	0
EN
