CM 
CM forw: 82, 0 ; back: 82, 180
CE
SY f1=21.15
SY f2=28.15
SY l1=300/f1
SY l2=300/f2
SY c1=0.158647
SY c2=0.175457
SY w1=c1*l1
SY w2=c2*l2
SY r1=2.118147
SY r2=1.914551
SY t1=w1*r1
SY t2=w2*r2
SY h=16
SY dh=0.3
GW	1	1	0	-0.05	H+dh/2	0	0.05	H+dh/2	0.001
GW	2	2	0	-0.05	H+dh/2	0	-0.3	H+dh	0.001
GW	3	2	0	-0.05	H+dh/2	0	-0.3	H	0.001
GW	4	2	0	0.05	H+dh/2	0	0.3	H+dh	0.001
GW	5	2	0	0.05	H+dh/2	0	0.3	H	0.001
GW	11	12	0	0.3	H	0	w1/2	H	0.001
GW	12	12	0	-0.3	H	0	-w1/2	H	0.001
GW	13	12	0	w1/2	H	0	w1/2	H+t1	0.001
GW	14	12	0	-w1/2	H	0	-w1/2	H+t1	0.001
GW	15	12	0	-w1/2	H+t1	0	w1/2	H+t1	0.001
GW	21	12	0	0.3	H+dh	0	w2/2	H+dh	0.001
GW	22	12	0	-0.3	H+dh	0	-w2/2	H+dh	0.001
GW	23	12	0	w2/2	H+dh	0	w2/2	H+t2+dh	0.001
GW	24	12	0	-w2/2	H+dh	0	-w2/2	H+t2+dh	0.001
GW	25	12	0	-w2/2	H+t2+dh	0	w2/2	H+t2+dh	0.001
GE	1
LD	5	0	0	0	58000000
LD	7	0	0	0	4.5	0.002
GN	2	0	0	0	17	0.015
EK
EX	0	1	1	0	1	0	0
FR,0,1,0,0,28.15
PQ -1
PT -1
