CM 
CM forw: 79, 0 ; back: 79, 180
CE
SY f1=21.15
SY f2=28.15
SY l1=300/f1
SY l2=300/f2
SY c1=0.183661
SY c2=0.183842
SY w1=c1*l1
SY w2=c2*l2
SY r1=1.793721
SY r2=1.85086
SY t1=w1*r1
SY t2=w2*r2
SY h=16
SY dh=0.3
GW	1	1	0	-0.05	H+dh/2	0	0.05	H+dh/2	0.0005
GW	2	2	0	-0.05	H+dh/2	0	-0.3	H+dh	0.0005
GW	3	2	0	-0.05	H+dh/2	0	-0.3	H	0.0005
GW	4	2	0	0.05	H+dh/2	0	0.3	H+dh	0.0005
GW	5	2	0	0.05	H+dh/2	0	0.3	H	0.0005
GW	11	5	0	0.3	H	0	w1/2	H	0.0005
GW	12	5	0	-0.3	H	0	-w1/2	H	0.0005
GW	13	5	0	w1/2	H	0	w1/2	H+t1	0.0005
GW	14	5	0	-w1/2	H	0	-w1/2	H+t1	0.0005
GW	15	5	0	-w1/2	H+t1	0	w1/2	H+t1	0.0005
GW	21	5	0	0.3	H+dh	0	w2/2	H+dh	0.0005
GW	22	5	0	-0.3	H+dh	0	-w2/2	H+dh	0.0005
GW	23	5	0	w2/2	H+dh	0	w2/2	H+t2+dh	0.0005
GW	24	5	0	-w2/2	H+dh	0	-w2/2	H+t2+dh	0.0005
GW	25	5	0	-w2/2	H+t2+dh	0	w2/2	H+t2+dh	0.0005
GE	1
LD	5	0	0	0	58000000
GN	2	0	0	0	17	0.015
EK
EX	0	1	1	0	1	0	0
FR,0,1,0,0,21.15
PQ -1
PT -1
