CM 
CM forw: 79, 0 ; back: 79, 180
CE
SY freq=21.15
SY lambda=300/freq
SY C=0.165178
SY ratio=2.039388
SY W=C*lambda
SY L=ratio*W
SY H=16
GW	1	9	0	-W/2	H	0	W/2	H	0.001
GW	2	15	0	-W/2	H	0	-W/2	H+L	0.001
GW	3	9	0	-W/2	H+L	0	W/2	H+L	0.001
GW	4	15	0	W/2	H	0	W/2	H+L	0.001
GE	1
LD	5	0	0	0	58000000
LD	7	0	0	0	4.5	0.002
GN	2	0	0	0	17	0.015
EK
EX	0	1	5	0	1	0	0
FR,0,1,0,0,21.15
PQ -1
PT -1
