CM 
CM forw: 79, 0 ; back: 79, 180
CE
SY freq=21.1
SY H=16
SY L=5.07836
SY W=2.051325
GW	1	9	0	-W/2	H	0	W/2	H	0.001
GW	2	20	0	-W/2	H	0	-W/2	H+L	0.001
GW	3	9	0	-W/2	H+L	0	W/2	H+L	0.001
GW	4	20	0	W/2	H	0	W/2	H+L	0.001
GE	1
LD	5	0	0	0	58000000
LD	7	0	0	0	4.5	0.002
GN	2	0	0	0	17	0.015
EK
EX	0	1	5	0	1	0	0
FR,0,1,0,0,21.1
PQ -1
PT -1
RP,0,36,73,1003,-86,0,5,5
