CM 
CM forw: 80, 0 ; back: 80, 180
CE
SY freq=21.1
SY L=4.854225
SY W=2.26704
SY H=23-L
GW	1	9	0	-W/2	H	0	W/2	H	0.001
GW	2	20	0	-W/2	H	0	-W/2	H+L	0.001
GW	3	9	0	-W/2	H+L	0	W/2	H+L	0.001
GW	4	20	0	W/2	H	0	W/2	H+L	0.001
GE	1
LD	5	0	0	0	58000000
LD	7	0	0	0	4.5	0.002
GN	2	0	0	0	17	0.015
EK
EX	0	1	5	0	1	0	0
FR,0,1,0,0,21.1
PQ -1
PT -1
RP,0,60,121,1003,-88,0,3,3
