CM 
CM forw: 81, 0 ; back: 81, 180
CE
SY freq=21.1
SY L1=3.221437
SY L2=L1
SY W=2.565226
SY H=23-L1-L2
GW	1	1	0	-0.1	H	0	0.1	H	0.001
GW	2	8	0	-0.1	H	0	-W/2	H+L1	0.001
GW	3	8	0	-W/2	H+L1	0	-0.1	H+L1+L2	0.001
GW	4	1	0	-0.1	H+L1+L2	0	0.1	H+L1+L2	0.001
GW	5	8	0	0.1	H	0	W/2	H+L1	0.001
GW	6	8	0	W/2	H+L1	0	0.1	H+L1+L2	0.001
GE	1
LD	5	0	0	0	58000000
LD	7	0	0	0	4.5	0.002
GN	2	0	0	0	17	0.015
EK
EX	0	1	1	0	1	0	0
FR,0,1,0,0,21.1
PQ -1
PT -1
RP,0,31,121,1003,-90,0,3,3
