CM 
CM forw: 61, 269 ; back: 61, 89
CE
SY freq=7.1
SY lambda=300/freq
SY corr=1.007
SY S=corr*lambda/4
SY H=23.75
GW	1	5	1	1	0	0.8928571	0.8928571	3.4285714	0.05
GW	2	5	1	-1	0	0.8928571	-0.892857	3.4285714	0.05
GW	3	5	-1	1	0	-0.892857	0.8928571	3.4285714	0.05
GW	4	5	-1	-1	0	-0.892857	-0.892857	3.4285714	0.05
GW	5	3	0.8928571	0.8928571	3.4285714	0.8928571	-0.892857	3.4285714	0.05
GW	6	3	0.8928571	-0.892857	3.4285714	-0.892857	-0.892857	3.4285714	0.05
GW	7	3	-0.892857	-0.892857	3.4285714	-0.892857	0.8928571	3.4285714	0.05
GW	8	3	-0.892857	0.8928571	3.4285714	0.8928571	0.8928571	3.4285714	0.05
GW	9	5	0.8928571	0.8928571	3.4285714	0.7857143	0.7857143	6.8571429	0.05
GW	10	5	0.8928571	-0.892857	3.4285714	0.7857143	-0.785714	6.8571429	0.05
GW	11	5	-0.892857	0.8928571	3.4285714	-0.785714	0.7857143	6.8571429	0.05
GW	12	5	-0.892857	-0.892857	3.4285714	-0.785714	-0.785714	6.8571429	0.05
GW	13	3	0.7857143	0.7857143	6.8571429	0.7857143	-0.785714	6.8571429	0.05
GW	14	3	0.7857143	-0.785714	6.8571429	-0.785714	-0.785714	6.8571429	0.05
GW	15	3	-0.785714	-0.785714	6.8571429	-0.785714	0.7857143	6.8571429	0.05
GW	16	3	-0.785714	0.7857143	6.8571429	0.7857143	0.7857143	6.8571429	0.05
GW	17	5	0.7857143	0.7857143	6.8571429	0.6785714	0.6785714	10.285714	0.05
GW	18	5	0.7857143	-0.785714	6.8571429	0.6785714	-0.678571	10.285714	0.05
GW	19	5	-0.785714	0.7857143	6.8571429	-0.678571	0.6785714	10.285714	0.05
GW	20	5	-0.785714	-0.785714	6.8571429	-0.678571	-0.678571	10.285714	0.05
GW	21	3	0.6785714	0.6785714	10.285714	0.6785714	-0.678571	10.285714	0.05
GW	22	3	0.6785714	-0.678571	10.285714	-0.678571	-0.678571	10.285714	0.05
GW	23	3	-0.678571	-0.678571	10.285714	-0.678571	0.6785714	10.285714	0.05
GW	24	3	-0.678571	0.6785714	10.285714	0.6785714	0.6785714	10.285714	0.05
GW	25	5	0.6785714	0.6785714	10.285714	0.5714286	0.5714286	13.714286	0.05
GW	26	5	0.6785714	-0.678571	10.285714	0.5714286	-0.571429	13.714286	0.05
GW	27	5	-0.678571	0.6785714	10.285714	-0.571429	0.5714286	13.714286	0.05
GW	28	5	-0.678571	-0.678571	10.285714	-0.571429	-0.571429	13.714286	0.05
GW	29	1	0.5714286	0.5714286	13.714286	0.5714286	-0.571429	13.714286	0.05
GW	30	1	0.5714286	-0.571429	13.714286	-0.571429	-0.571429	13.714286	0.05
GW	31	1	-0.571429	-0.571429	13.714286	-0.571429	0.5714286	13.714286	0.05
GW	32	1	-0.571429	0.5714286	13.714286	0.5714286	0.5714286	13.714286	0.05
GW	33	5	0.5714286	0.5714286	13.714286	0.4642857	0.4642857	17.142857	0.05
GW	34	5	0.5714286	-0.571429	13.714286	0.4642857	-0.464286	17.142857	0.05
GW	35	5	-0.571429	0.5714286	13.714286	-0.464286	0.4642857	17.142857	0.05
GW	36	5	-0.571429	-0.571429	13.714286	-0.464286	-0.464286	17.142857	0.05
GW	37	1	0.4642857	0.4642857	17.142857	0.4642857	-0.464286	17.142857	0.05
GW	38	1	0.4642857	-0.464286	17.142857	-0.464286	-0.464286	17.142857	0.05
GW	39	1	-0.464286	-0.464286	17.142857	-0.464286	0.4642857	17.142857	0.05
GW	40	1	-0.464286	0.4642857	17.142857	0.4642857	0.4642857	17.142857	0.05
GW	41	5	0.4642857	0.4642857	17.142857	0.3571429	0.3571429	20.571429	0.05
GW	42	5	0.4642857	-0.464286	17.142857	0.3571429	-0.357143	20.571429	0.05
GW	43	5	-0.464286	0.4642857	17.142857	-0.357143	0.3571429	20.571429	0.05
GW	44	5	-0.464286	-0.464286	17.142857	-0.357143	-0.357143	20.571429	0.05
GW	45	1	0.3571429	0.3571429	20.571429	0.3571429	-0.357143	20.571429	0.05
GW	46	1	0.3571429	-0.357143	20.571429	-0.357143	-0.357143	20.571429	0.05
GW	47	1	-0.357143	-0.357143	20.571429	-0.357143	0.3571429	20.571429	0.05
GW	48	1	-0.357143	0.3571429	20.571429	0.3571429	0.3571429	20.571429	0.05
GW	49	5	0.3571429	0.3571429	20.571429	0.25	0.25	24	0.05
GW	50	5	0.3571429	-0.357143	20.571429	0.25	-0.25	24	0.05
GW	51	5	-0.357143	0.3571429	20.571429	-0.25	0.25	24	0.05
GW	52	5	-0.357143	-0.357143	20.571429	-0.25	-0.25	24	0.05
GW	53	1	0.25	0.25	24	0.25	-0.25	24	0.05
GW	54	1	0.25	-0.25	24	-0.25	-0.25	24	0.05
GW	55	1	-0.25	-0.25	24	-0.25	0.25	24	0.05
GW	56	1	-0.25	0.25	24	0.25	0.25	24	0.05
GW	100	9	0	-S/2	H-S	0	S/2	H-S	0.001
GW	101	9	0	-S/2	H	0	S/2	H	0.001
GW	102	9	0	-S/2	H	0	-S/2	H-S	0.001
GW	103	9	0	S/2	H	0	S/2	H-S	0.001
GE	1
LD	5	0	0	0	58000000
LD	7	0	0	0	4.5	0.002
GN	2	0	0	0	17	0.015
EK
EX	0	100	5	0	1	0	0
FR,0,1,0,0,7.1
PQ -1
PT -1
