CM 
CM forw: 75, 0 ; back: 75, 180
CE
SY f1=14.15
SY l1=300/f1
SY c=1.01
SY S=c*cos(45)*l1/4
SY H=16
GW	1	9	0	0	H	0	-S	H+S	0.001
GW	2	9	0	0	H	0	S	H+S	0.001
GW	3	9	0	-S	H+S	0	0	H+2*S	0.001
GW	4	9	0	S	H+S	0	0	H+2*S	0.001
GE	1
LD	5	0	0	0	58000000
LD	7	0	0	0	4.5	0.002
GN	2	0	0	0	17	0.015
EK
EX	0	1	1	0	1	0	0
EX	0	2	1	0	-1	0	0
FR,0,1,0,0,14.15
PQ -1
PT -1
