CM 
CM forw: 76, 0 ; back: 76, 180
CE
SY freq=14.1
SY H=26
SY lambda=300/freq
SY corr=1.0155
SY S=corr*lambda/3
SY theta=60
SY W=S*sin(theta/2)
SY A=S*cos(theta/2)
GW	1	1	0	-0.05	H	0	0.05	H	0.001
GW	2	10	0	-0.05	H	0	-W	H+A	0.001
GW	3	10	0	0.05	H	0	W	H+A	0.001
GW	4	10	0	-W	H+A	0	W	H+A	0.001
GE	1
LD	5	0	0	0	58000000
LD	7	0	0	0	4.5	0.002
GN	2	0	0	0	17	0.015
EK
EX	0	1	1	0	1	0	0
FR,0,1,0,0,14.1
PQ -1
PT -1
