CM 
CM forw: 21, 0 ; back: 21, 180
CE
SY freq=7.1
SY L1=10.05696
SY L2=7.977863
SY S=0.104975
SY H=10
GW	1	19	0	L1	H	0	-L1	H	0.001
GW	2	17	S	L2	H	S	-L2	H	0.001
GW	3	17	-S	L2	H	-S	-L2	H	0.001
GE	1
LD	5	0	0	0	58000000
LD	7	0	0	0	4.5	0.002
GN	2	0	0	0	17	0.015
EK
EX	0	1	10	0	1	0	0
FR,0,1,0,0,7.1
PQ -1
PT -1
