CM 
CM forw: 40, 0 ; back: 40, 180
CE
SY freq=7.3
SY lambda=300/freq
SY L1=10.39132
SY L2=8.270984
SY TL1=lambda/4
SY Zo=75
SY H=12
SY S=0.135768
SY corr=0.95
GW	1	19	0	L1*corr	H	0	-L1*corr	H	0.001
GW	2	19	S	L2*corr	H	S	-L2*corr	H	0.001
GW	3	19	-S	L2*corr	H	-S	-L2*corr	H	0.001
GE	1
LD	5	0	0	0	58000000
LD	7	0	0	0	4.5	0.002
GN	2	0	0	0	17	0.015
EK
EX	0	1	10	0	1	0	0
FR,0,1,0,0,7.3
PQ -1
PT -1
