CM 
CM forw: 74, 0 ; back: 74, 180
CE
SY V=11.7
SY R=7.072474
SY Vr=0.01
SY Rr=0.01
SY H=8
SY theta=25
GW	1	25	0	0	H	0	0	V+H	Vr
GW	2	25	0	0	H	R*cos(theta)	0	-R*sin(theta)+H	Rr
GW	3	25	0	0	H	-R*cos(theta)	0	-R*sin(theta)+H	Rr
GW	4	25	0	0	H	0	R*cos(theta)	-R*sin(theta)+H	Rr
GW	5	25	0	0	H	0	-R*cos(theta)	-R*sin(theta)+H	Rr
GE	1
LD	5	0	0	0	58000000
LD	7	0	0	0	4.5	0.0015
GN	2	0	0	0	17	0.015
EK
EX	0	1	1	0	1	0	0
FR,0,1,0,0,7.1
PQ -1
PT -1
