CM 
CM forw: 29, 0 ; back: 29, 180
CE
SY freq=7.1
SY L1=36.81545
SY L2=30.34549
SY TL1=31.86697
SY Zo=75
SY H=35
SY S=0.298078
GW	1	19	0	L1	H	0	-L1	H	0.001
GW	2	19	S	L2	H	S	-L2	H	0.001
GW	10	1	0	-0.05	1	0	0.05	1	0.001
GS	0	0	0.3048
GE	1
LD	5	0	0	0	58000000
GN	2	0	0	0	17	0.015
EK
EX	0	10	1	0	1	0	0
TL	10	1	1	10	Zo	TL1	0	0	0	0
FR,0,1,0,0,freq
XQ
FR,0,21,0,0,6,0.1
PQ -1
PT -1
