CM 
CM forw: 57, 0 ; back: 57, 180
CE
SY freq=7.1
SY H=24
SY SMA=8.034353
SY SMiA=7
GW	1	1	0	0.1	H-2*SMA	0	-0.1	H-2*SMA	0.001
GW	2	10	0	0.1	H-2*SMA	0	SMiA	H-SMA	0.001
GW	3	10	0	SMiA	H-SMA	0	0	H	0.001
GW	4	10	0	-0.1	H-2*SMA	0	-SMiA	H-SMA	0.001
GW	5	10	0	-SMiA	H-SMA	0	0	H	0.001
GE	1
LD	5	0	0	0	58000000
LD	7	0	0	0	4.5	0.002
GN	2	0	0	0	17	0.015
EK
EX	0	1	1	0	1	0	0
FR,0,1,0,0,7.1
PQ -1
PT -1
