CM 
CM forw: 60, 0 ; back:-60, 0
CE
SY freq=7.1
SY lambda=300/freq
SY H=20
SY Zo=300
SY TL=18.3
GW	1	49	0	-8	H	0	8	H	0.001
GW	10	10	0	-8	H	0.7	-8	H+0.7	0.001
GW	11	10	0	-8	H	0.7	-8	H-0.7	0.001
GW	12	10	0	-8	H	-0.7	-8	H+0.7	0.001
GW	13	10	0	-8	H	-0.7	-8	H-0.7	0.001
GW	20	10	0	8	H	0.7	8	H+0.7	0.001
GW	21	10	0	8	H	0.7	8	H-0.7	0.001
GW	22	10	0	8	H	-0.7	8	H+0.7	0.001
GW	23	10	0	8	H	-0.7	8	H-0.7	0.001
GW	30	1	0	-0.05	3	0	0.05	3	0.001
GE	1
LD	5	0	0	0	58000000
LD	7	0	0	0	4.5	0.002
GN	2	0	0	0	17	0.015
EK
EX	0	30	1	0	1	0	0
TL	30	1	1	25	Zo	TL	0	0	0	0
FR,0,1,0,0,7.1
PQ -1
PT -1
RP,0,37,1,1000,-90,0,5
