CM 
CM forw: 63, 89 ; back: 63, 269
CE
SY freq=7.1
SY lambda=300/freq
SY H=20
SY corr=1.35589
SY S=corr*lambda/4
GW	1	19	S/2	S/2	H	-S/2	S/2	H	0.001
GW	2	19	S/2	-S/2	H	-S/2	-S/2	H	0.001
GW	3	19	S/2	S/2	H	S/2	-S/2	H	0.001
GW	4	19	-S/2	S/2	H	-S/2	-S/2	H	0.001
GE	1
LD	5	0	0	0	58000000
LD	7	0	0	0	4.5	0.002
GN	2	0	0	0	17	0.015
EK
EX	0	3	10	0	1	0	0
EX	0	4	10	0	-1	0	0
FR,0,1,0,0,7.1
PQ -1
PT -1
