CM 
CM forw: 61, 0 ; back: 61, 180
CE
SY freq=7.05
SY lambda=300/freq
SY s=300/21.07
SY H=20
SY Zo=569.8568
SY TL_len=25.02606	'25.5
GW	1	49	0	s/2	H	0	-s/2	H	0.01
GW	10	1	0	0.01	3	0	-0.01	3	0.001
GE	1
LD	5	0	0	0	37700000
GN	2	0	0	0	17	0.015
EK
EX	0	10	1	0	1	0	0
TL	10	1	1	25	Zo	TL_len	0	0	0	0
FR,0,1,0,0,7.05
PQ -1
PT -1
