CM 
CM forw: 60, 0 ; back: 60, 180
CE
SY freq=7.2
SY H=20
SY L=9.796945
SY TL1=19.69712
SY TL2=10.26452
GW	1	19	0	L	H	0	-L	H	0.001
GW	2	1	0	-0.05	H/2	0	0.05	H/2	0.001
GW	3	1	0	-0.05	2	0	0.05	2	0.001
GE	1
LD	5	0	0	0	58000000
LD	7	0	0	0	4.5	0.002
GN	2	0	0	0	17	0.015
EK
EX	0	3	1	0	1	0	0
TL	1	10	2	1	50	TL1	0	0	0	0
TL	2	1	3	1	75	TL2	0	0	0	0
FR,0,1,0,0,freq
XQ
FR,0,5,0,0,6.9,0.1
PQ -1
PT -1
