CM 
CM forw: 75, 333 ; back: 75, 153
CE
SY freq=433
SY R=0.17
SY B=0.5
SY c=0.2/10
SY Z1=c
SY X2=-0.03055, Y2=0.196092, Z2=2*c
SY X3=-0.02533, Y3=-0.04256, Z3=3*c
SY X4=0.016344, Y4=0.042311, Z4=4*c
SY X5=0.105929, Y5=-0.03663, Z5=5*c
SY X6=-0.06476, Y6=0.122883, Z6=6*c
SY X7=0.098081, Y7=0.059549, Z7=7*c
SY X8=-4.96e-3, Y8=0.030583, Z8=8*c
SY X9=-0.04744, Y9=0.11542, Z9=9*c
SY X10=-1.46e-3, Y10=-7.13e-3, Z10=10*c
GW	1	10	0	0	B	R	0	B	0.0005
GW	2	10	0	0	B	-R	0	B	0.0005
GW	3	10	0	0	B	0	R	B	0.0005
GW	4	10	0	0	B	0	-R	B	0.0005
GW	5	5	0	0	B	0	0	B+Z1	0.0005
GW	6	5	0	0	B+Z1	X2	Y2	B+Z2	0.0005
GW	7	5	X2	Y2	B+Z2	X3	Y3	B+Z3	0.0005
GW	8	5	X3	Y3	B+Z3	X4	Y4	B+Z4	0.0005
GW	9	5	X4	Y4	B+Z4	X5	Y5	B+Z5	0.0005
GW	10	5	X5	Y5	B+Z5	X6	Y6	B+Z6	0.0005
GW	11	5	X6	Y6	B+Z6	X7	Y7	B+Z7	0.0005
GW	12	5	X7	Y7	B+Z7	X8	Y8	B+Z8	0.0005
GW	13	5	X8	Y8	B+Z8	X9	Y9	B+Z9	0.0005
GW	14	5	X9	Y9	B+Z9	X10	Y10	B+Z10	0.0005
GE	1
LD	5	0	0	0	58000000
GN	2	0	0	0	17	0.015
EK
EX	0	5	1	0	1	0	0
FR,0,1,0,0,433
PQ -1
PT -1
