CM 
CM forw: 72, 0 ; back: 72, 180
CE
SY freq=7.1
SY R=9
SY B=4
SY Z1=1
SY X2=-5.21907, Y2=-2.57371, Z2=2
SY X3=-2.0191, Y3=1.245564, Z3=3
SY X4=1.869811, Y4=4.918347, Z4=4
SY X5=3.64038, Y5=-0.72502, Z5=5
SY X6=-5.14354, Y6=-1.84276, Z6=6
SY X7=6, Y7=5.293279, Z7=7
SY X8=-3.40151, Y8=5.921238, Z8=8
SY X9=0.490887, Y9=-5.93487, Z9=9
SY X10=-2.62462, Y10=2.793923, Z10=10
SY X11=1.736585, Y11=4.377962, Z11=11
SY X12=4.384127, Y12=6, Z12=12
GW	1	10	0	0	B	R	0	B	0.001
GW	2	10	0	0	B	-R	0	B	0.001
GW	3	10	0	0	B	0	R	B	0.001
GW	4	10	0	0	B	0	-R	B	0.001
GW	5	5	0	0	B	0	0	B+Z1	0.001
GW	6	5	0	0	B+Z1	X2	Y2	B+Z2	0.001
GW	7	5	X2	Y2	B+Z2	X3	Y3	B+Z3	0.001
GW	8	5	X3	Y3	B+Z3	X4	Y4	B+Z4	0.001
GW	9	5	X4	Y4	B+Z4	X5	Y5	B+Z5	0.001
GW	10	5	X5	Y5	B+Z5	X6	Y6	B+Z6	0.001
GW	11	5	X6	Y6	B+Z6	X7	Y7	B+Z7	0.001
GW	12	5	X7	Y7	B+Z7	X8	Y8	B+Z8	0.001
GW	13	5	X8	Y8	B+Z8	X9	Y9	B+Z9	0.001
GW	14	5	X9	Y9	B+Z9	X10	Y10	B+Z10	0.001
GW	15	5	X10	Y10	B+Z10	X11	Y11	B+Z11	0.001
GW	16	5	X11	Y11	B+Z11	X12	Y12	B+Z12	0.001
GE	1
LD	5	0	0	0	58000000
GN	2	0	0	0	17	0.015
EK
EX	0	5	1	0	1	0	0
FR,0,1,0,0,7.1
PQ -1
PT -1
