CM 
CM forw: 42, 174 ; back: 42, 354
CE
SY freq=7.1
SY R=(300/freq)*0.25*0.95	'9
SY B=4
SY X1=-5.65418, Y1=-1.99708, Z1=9.363198
SY X2=0.655316, Y2=-5.29234, Z2=1.199547
SY X3=-5.58115, Y3=-1.9446, Z3=1.569328
SY X4=-1.70708, Y4=-5.57629, Z4=3.68396
SY X5=4.095104, Y5=0.75112, Z5=4.818949
GW	1	10	0	0	B	R	0	B	0.001
GW	2	10	0	0	B	-R	0	B	0.001
GW	3	10	0	0	B	0	R	B	0.001
GW	4	10	0	0	B	0	-R	B	0.001
GW	5	5	0	0	B	X1	Y1	B+Z1	0.001
GW	6	5	X1	Y1	B+Z1	X2	Y2	B+Z1+Z2	0.001
GW	7	5	X2	Y2	B+Z1+Z2	X3	Y3	B+Z1+Z2+Z3	0.001
GW	8	5	X3	Y3	B+Z1+Z2+Z3	X4	Y4	B+Z1+Z2+Z3+Z4	0.001
GW	9	5	X4	Y4	B+Z1+Z2+Z3+Z4	X5	Y5	B+Z1+Z2+Z3+Z4+Z5	0.001
GE	1
LD	5	0	0	0	58000000
GN	2	0	0	0	17	0.015
EK
EX	0	5	1	0	1	0	0
FR,0,1,0,0,7.1
PQ -1
PT -1
