CM 
CM forw: 70, 32 ; back: 70, 212
CE
SY freq=7.1
SY R=(300/freq)*0.25*0.95	'9
SY B=4
SY H1=5.358439
SY X2=3.913796, Y2=1.028454, Z2=1
SY X3=2.526989, Y3=-1.65299, Z3=0.548688
SY X4=-5.66427, Y4=5.60936, Z4=-0.37067
SY X5=-6, Y5=5.52828, Z5=2.035657
GW	1	10	0	0	B	R	0	B	0.001
GW	2	10	0	0	B	-R	0	B	0.001
GW	3	10	0	0	B	0	R	B	0.001
GW	4	10	0	0	B	0	-R	B	0.001
GW	5	5	0	0	B	0	0	B+H1	0.001
GW	6	5	0	0	B+H1	X2	Y2	B+H1+Z2	0.001
GW	7	5	X2	Y2	B+H1+Z2	X3	Y3	B+H1+Z2+Z3	0.001
GW	8	5	X3	Y3	B+H1+Z2+Z3	X4	Y4	B+H1+Z2+Z3+Z4	0.001
GW	9	5	X4	Y4	B+H1+Z2+Z3+Z4	X5	Y5	B+H1+Z2+Z3+Z4+Z5	0.001
GE	1
LD	5	0	0	0	58000000
GN	2	0	0	0	17	0.015
EK
EX	0	5	1	0	1	0	0
FR,0,1,0,0,7.1
PQ -1
PT -1
