CM 
CM forw: 72, 0 ; back: 72, 180
CE
SY freq=7.1
SY R=9
SY B=4
SY Z1=1
SY X2=-2.8419, Y2=-3.33726, Z2=2
SY X3=3.31006, Y3=-4.41371, Z3=3
SY X4=-4.03158, Y4=1.90823, Z4=4
SY X5=4.364046, Y5=6, Z5=5
SY X6=2.256787, Y6=-1.45509, Z6=6
SY X7=-4.50132, Y7=-6, Z7=7
SY X8=-5.24041, Y8=0.609285, Z8=8
SY X9=0.240471, Y9=-3.6511, Z9=9
SY X10=-4.49254, Y10=2.224126, Z10=10
SY X11=4.62643, Y11=1.975538, Z11=11
SY X12=-1.5086, Y12=-5.62004, Z12=12
GW	1	10	0	0	B	R	0	B	0.001
GW	2	10	0	0	B	-R	0	B	0.001
GW	3	10	0	0	B	0	R	B	0.001
GW	4	10	0	0	B	0	-R	B	0.001
GW	5	5	0	0	B	0	0	B+Z1	0.001
GW	6	5	0	0	B+Z1	X2	Y2	B+Z2	0.001
GW	7	5	X2	Y2	B+Z2	X3	Y3	B+Z3	0.001
GW	8	5	X3	Y3	B+Z3	X4	Y4	B+Z4	0.001
GW	9	5	X4	Y4	B+Z4	X5	Y5	B+Z5	0.001
GW	10	5	X5	Y5	B+Z5	X6	Y6	B+Z6	0.001
GW	11	5	X6	Y6	B+Z6	X7	Y7	B+Z7	0.001
GW	12	5	X7	Y7	B+Z7	X8	Y8	B+Z8	0.001
GW	13	5	X8	Y8	B+Z8	X9	Y9	B+Z9	0.001
GW	14	5	X9	Y9	B+Z9	X10	Y10	B+Z10	0.001
GW	15	5	X10	Y10	B+Z10	X11	Y11	B+Z11	0.001
GW	16	5	X11	Y11	B+Z11	X12	Y12	B+Z12	0.001
GE	1
LD	5	0	0	0	58000000
GN	2	0	0	0	17	0.015
EK
EX	0	5	1	0	1	0	0
FR,0,1,0,0,7.1
PQ -1
PT -1
