CM 
CM forw: 37, 111 ; back: 37, 291
CE
SY freq=7.1
SY R=(300/freq)*0.25*0.95	'9
SY B=4
SY X1=1.566936, Y1=-1.79748, Z1=6
SY X2=0.95284, Y2=-4.26399, Z2=1.893552
SY X3=-0.82905, Y3=3.75183, Z3=1.800537
SY X4=-0.70311, Y4=1.959955, Z4=-0.06519
SY X5=1.091854, Y5=0.765138, Z5=-0.45468
GW	1	10	0	0	B	R	0	B	0.001
GW	2	10	0	0	B	-R	0	B	0.001
GW	3	10	0	0	B	0	R	B	0.001
GW	4	10	0	0	B	0	-R	B	0.001
GW	5	5	0	0	B	X1	Y1	B+Z1	0.001
GW	6	5	X1	Y1	B+Z1	X2	Y2	B+Z1+Z2	0.001
GW	7	5	X2	Y2	B+Z1+Z2	X3	Y3	B+Z1+Z2+Z3	0.001
GW	8	5	X3	Y3	B+Z1+Z2+Z3	X4	Y4	B+Z1+Z2+Z3+Z4	0.001
GW	9	5	X4	Y4	B+Z1+Z2+Z3+Z4	X5	Y5	B+Z1+Z2+Z3+Z4+Z5	0.001
GE	1
LD	5	0	0	0	58000000
GN	2	0	0	0	17	0.015
EK
EX	0	5	1	0	1	0	0
FR,0,1,0,0,7.1
PQ -1
PT -1
RP,0,36,72,1000,-88,1,5,5
