CM 
CM forw: 77, 10 ; back: 77, 190
CE
SY freq=433
SY R=0.17
SY B=0.25
SY c=0.22/8
SY Z1=c
SY X2=-0.01696, Y2=2.612e-3, Z2=0.050268
SY X3=-0.0904, Y3=0.08421, Z3=0.123288
SY X4=-0.05297, Y4=-0.01615, Z4=0.143442
SY X5=0.024408, Y5=-0.04991, Z5=0.20162
SY X6=0.027631, Y6=-0.07944, Z6=0.092432
GW	1	10	0	0	B	R	0	B	0.0005
GW	2	10	0	0	B	-R	0	B	0.0005
GW	3	10	0	0	B	0	R	B	0.0005
GW	4	10	0	0	B	0	-R	B	0.0005
GW	5	5	0	0	B	0	0	B+Z1	0.0005
GW	6	5	0	0	B+Z1	X2	Y2	B+Z2	0.0005
GW	7	5	X2	Y2	B+Z2	X3	Y3	B+Z3	0.0005
GW	8	5	X3	Y3	B+Z3	X4	Y4	B+Z4	0.0005
GW	9	5	X4	Y4	B+Z4	X5	Y5	B+Z5	0.0005
GW	10	5	X5	Y5	B+Z5	X6	Y6	B+Z6	0.0005
GE	1
LD	5	0	0	0	58000000
GN	2	0	0	0	17	0.015
EK
EX	0	5	1	0	1	0	0
FR,0,1,0,0,433
PQ -1
PT -1
