CM 
CM forw: 57, 303 ; back: 57, 123
CE
SY freq=7.1
SY R=(300/freq)*0.25*0.95	'9
SY B=4
SY H1=0.899398
SY X2=-3.88, Y2=-0.91681, Z2=4.361462
SY X3=-6.70611, Y3=-5.57385, Z3=8.518382
SY X4=1.337086, Y4=1.019282, Z4=1.795322
SY X5=-1.44645, Y5=-3.31419, Z5=2.840341
GW	1	10	0	0	B	R	0	B	0.001
GW	2	10	0	0	B	-R	0	B	0.001
GW	3	10	0	0	B	0	R	B	0.001
GW	4	10	0	0	B	0	-R	B	0.001
GW	5	5	0	0	B	0	0	B+H1	0.001
GW	6	5	0	0	B+H1	X2	Y2	B+H1+Z2	0.001
GW	7	5	X2	Y2	B+H1+Z2	X3	Y3	B+H1+Z2+Z3	0.001
GW	8	5	X3	Y3	B+H1+Z2+Z3	X4	Y4	B+H1+Z2+Z3+Z4	0.001
GW	9	5	X4	Y4	B+H1+Z2+Z3+Z4	X5	Y5	B+H1+Z2+Z3+Z4+Z5	0.001
GE	1
LD	5	0	0	0	58000000
GN	2	0	0	0	17	0.015
EK
EX	0	5	1	0	1	0	0
FR,0,1,0,0,7.1
PQ -1
PT -1
