CM 
CM forw: 77, 10 ; back: 77, 190
CE
SY freq=433
SY R=0.17
SY B=0.25
SY c=0.22/8
SY Z1=c
SY X2=-0.01685, Y2=3.235e-3, Z2=0.042232
SY X3=0.086766, Y3=-2.55e-3, Z3=0.125532
SY X4=0.07867, Y4=-0.01651, Z4=0.162897
SY X5=0.022362, Y5=-0.06166, Z5=0.186494
SY X6=0.024494, Y6=0.035512, Z6=0.247401
GW	1	10	0	0	B	R	0	B	0.0005
GW	2	10	0	0	B	-R	0	B	0.0005
GW	3	10	0	0	B	0	R	B	0.0005
GW	4	10	0	0	B	0	-R	B	0.0005
GW	5	5	0	0	B	0	0	B+Z1	0.0005
GW	6	5	0	0	B+Z1	X2	Y2	B+Z2	0.0005
GW	7	5	X2	Y2	B+Z2	X3	Y3	B+Z3	0.0005
GW	8	5	X3	Y3	B+Z3	X4	Y4	B+Z4	0.0005
GW	9	5	X4	Y4	B+Z4	X5	Y5	B+Z5	0.0005
GW	10	5	X5	Y5	B+Z5	X6	Y6	B+Z6	0.0005
GE	1
LD	5	0	0	0	58000000
GN	2	0	0	0	17	0.015
EK
EX	0	5	1	0	1	0	0
FR,0,1,0,0,433
PQ -1
PT -1
