CM 
CM forw: 81, 177 ; back: 81, 357
CE
SY s=5.020378
SY h1=9.809911
SY h2=10.30492
GW	1	20	0	0	0	0	0	h1	1.e-3
GW	2	20	s	0	0	s	0	h2	1.e-3
GE	1
GN	2	0	0	0	81	5.0
EK
EX	0	1	1	0	1	0	0
FR,0,1,0,0,7.29
PQ -1
PT -1
RP,0,36,72,1003,-89,2,5,5
