CM 
CM forw: 75, 45 ; back:-75, 45
CE
SY freq=7.1
SY lambda=300/freq
SY H=5
SY L=lambda/4
SY D=8
SY theta=30
SY tau=D*cos(theta)
SY phase=360*tau/lambda
SY TL1=D/2
SY TL2=50
GW	1	19	D/2	0	H	D/2	0	H+L	0.001
GW	2	19	-D/2	0	H	-D/2	0	H+L	0.001
GW	10	1	0	-D/2	H+ L/2 + 0.05	0	-D/2	H + L/2 - 0.05	0.001
GE	1
GN	2	0	0	0	17	0.015
EK
EX	0	10	1	0	1	0	0
TL	1	10	10	1	50	TL1	0	0	0	0
TL	2	10	10	1	50	TL2	0	0	0	0
FR,0,1,0,0,7.1
PQ -1
PT -1
RP,0,37,1,1000,-90,45,5
