CM 
CM forw: 70, 0 ; back: 70, 180
CE
SY V=7
SY T=3.662557
SY Vr=0.01
SY Tr=0.01
SY H=5
GW	1	49	0	0	H	0	0	H+V	Vr
GW	2	25	0	0	H	0	T	H	Tr
GW	3	25	0	0	H	0	-T	H	Tr
GW	4	25	0	0	H	T	0	H	Tr
GW	5	25	0	0	H	-T	0	H	Tr
GW	6	25	0	0	H+V	0	T	H+V	Tr
GW	7	25	0	0	H+V	0	-T	H+V	Tr
GW	8	25	0	0	H+V	T	0	H+V	Tr
GW	9	25	0	0	H+V	-T	0	H+V	Tr
GE	1
LD	5	0	0	0	37700000
GN	2	0	0	0	17	0.015
EK
EX	0	1	25	0	1	0	0
FR,0,1,0,0,7.1
PQ -1
PT -1
