CM Phased 1160
CE
GW	1	16	-580	0	0	-510	0	10	1.33173e-3
GW	2	73	-510	0	10	510	0	10	1.33173e-3
GW	3	16	510	0	10	580	0	0	1.33173e-3
GW	4	16	-580	180	0	-510	180	10	1.33173e-3
GW	5	73	-510	180	10	510	180	10	1.33173e-3
GW	6	16	510	180	10	580	180	0	1.33173e-3
GS	0	0	0.3048
GE	1
LD	5	0	0	0	58000000
GN	2	0	0	0	5	0.001
EK
EX	0	1	1	0	100	0	0	0
EX	0	4	1	0	100	0	0	0
FR	0	0	0	0	3.5	0
EN
