CM NEC Input File for Rhombic
CM RP  0 31   73 1001  0.00E+00  0.00E+00  3.00E+00  5.00E+00  0.00E+00  0.00E+00
CE
GW	1	20	0	0	10.00000	17.30000	10.00000	10.00000	0.01000
GW	2	20	0	0	10.00000	17.30000	-10.00000	10.00000	0.01000
GW	3	20	17.30000	10.00000	10.00000	34.60000	0	10.00000	0.01000
GW	4	20	17.30000	-10.00000	10.00000	34.60000	0	10.00000	0.01000
GE	1
LD	0	3	20	0	2.90E+02	0	0	0	0	0
LD	0	4	20	0	2.90E+02	0	0	0	0	0
GN	2	0	0	0	17	0.015
EK
EX	0	1	1	0	1.00E+00	0	0	0
EX	0	2	1	0	-1.00E+00	0	0	0
FR	0	0	0	0	3.00E+01	0
EN
