CM K6NA - 4-Element W1CF Phased-Vertical Array
CM 
CM 
CM 
CE
SY S = 45.78 ft
SY I1 = 1
SY I23 = 1
SY I4 = 1
SY P1 = 0
SY P23 = -90
SY P4 = -180
GW	1	5	-S	0	0	-S	0	61ft	1in
GW	2	5	0	-S	0	0	-S	61ft	1in
GW	3	5	0	S	0	0	S	61ft	1in
GW	4	5	S	0	0	S	0	61ft	1in
GE	1
GN	0	0	0	0	17	0.015
EK
EX	6	1	1	0	1.0	0	0
EX	6	2	1	0	0	-1.0	0
EX	6	3	1	0	0	-1.0	0
EX	6	4	1	0	-1.0	0	0
FR	0	0	0	0	3.8	0
EN
