CM Example file by Dimitry Fedorov, UA3AVR
CM GN 1
CE
GW	1	30	0	0	0	0	0	2.86632	0.008
GW	2	30	3.01204	0	0	3.01204	0	2.86632	0.008
GW	1000	1	1	0	1	1	0	1.001	0.00001
GE	1
GN	3	0	0	0	17	0.015
EK
EX	0	1000	1	0	1.0000	0	0
TL	1	1	1000	1	50	2.76144578	0	0	0	0
TL	2	1	1000	1	50	5.26506024	0	0	0	0
FR	0	0	0	0	24.9	0
EN
