CM 3.6 MHz vertical array.
CM GN 1
CE
GW	1	25	-40.98	0	0	-40.98	0	68.6	0.083335
GW	2	25	0	0	0	0	0	65.5	0.083335
GW	3	25	47.58	0	0	47.58	0	61.6	0.083335
GS	0	0	.30479
GE	1
LD	5	0	0	0	30800000
GN	3	0	0	0	17	0.015
EK
EX	6	2	1	0	1	0	0	0	'Current source
FR	0	0	0	0	3.6	0
EN
