CM 
CM forw: 65, 83 ; back: 65, 263
CE
SY freq=7.1
SY A=10.2
SY L=10.4
SY h=0.1
SY n=8
SY dt=360/n
GW	1	20	0	0	0	0	0	A	0.001
GW	2	1	0	0	0	0	h	h	0.001
GW	3	40	0	h	h	0	L	h	0.001
GE	1
GN	2	0	0	0	17	0.015
EK
EX	0	1	1	0	1	0	0
FR,0,1,0,0,7.1
PQ -1
PT -1
