CM 
CM forw:-62, 178 ; back:-62, 358
CE
SY freq=7.1
SY W=3
SY L=2
SY H=20
SY D=W+0.5
SY theta=30
SY tau=D*cos(theta)
SY phase=tau*freq*360/300
SY R=552.4947
GW	1	5	L/2	W/2	H	L/2	-W/2	H	0.001
GW	2	5	-L/2	W/2	H	-L/2	-W/2	H	0.001
GW	3	7	L/2	W/2	H	-L/2	W/2	H	0.001
GW	4	7	L/2	-W/2	H	-L/2	-W/2	H	0.001
GE	1
LD	5	0	0	0	58000000
LD	0	2	3	0	R
GN	2	0	0	0	17	0.015
EK
EX	0	1	3	0	1	0	0
FR,0,1,0,0,7.1
PQ -1
PT -1
RP,0,36,72,1000,-87,3,5,5
