CM 
CM forw:-63, 177 ; back:-63, 357
CE
SY freq=7.1
SY W=3
SY L=2
SY R1=566.4842
SY H=20
GW	1	7	L/2	W/2	H	L/2	-W/2	H	0.001
GW	2	7	L/2	W/2	H	-L/2	W/2	H	0.001
GW	3	7	-L/2	W/2	H	-L/2	-W/2	H	0.001
GW	4	7	L/2	-W/2	H	-L/2	-W/2	H	0.001
GE	1
LD	0	3	4	0	R1
LD	5	0	0	0	58000000
GN	2	0	0	0	17	0.015
EK
EX	0	1	4	0	1	0	0
FR,0,1,0,0,7.1
PQ -1
PT -1
RP,0,36,72,1000,-88,2,5,5
