CM 
CM forw:-81, 0 ; back:-81, 180
CE
SY freq=7.1
SY H=5
SY L=10.88231
SY R=41.57077
GW	1	50	0	0	0	0	0	H	0.001
GE	1
LD	5	0	0	0	58000000
LD	0	1	1	0	R	L*1e-6
GN	2	0	0	0	81	5.0
EK
EX	0	1	1	0	1	0	0
FR,0,1,0,0,7.1
PQ -1
PT -1
