CM 
CM forw: 62, 2 ; back: 62, 182
CE
SY freq=7.1
SY W=2.747007
SY L=1.001978
SY R1=638.9964
SY H=20
GW	1	17	w/2	L/2	H	w/2	-L/2	H	0.001
GW	2	9	w/2	L/2	H	-w/2	L/2	H	0.001
GW	3	17	-w/2	L/2	H	-w/2	-L/2	H	0.001
GW	4	9	w/2	-L/2	H	-w/2	-L/2	H	0.001
GE	1
LD	0	3	9	0	R1
GN	2	0	0	0	17	0.015
EK
EX	0	1	9	0	1	0	0
FR,0,1,0,0,7.1
PQ -1
PT -1
RP,0,36,72,1000,-88,2,5,5
