CM 
CM forw:-69, 180 ; back:-69, 360
CE
SY freq=7.1
SY L=10
SY H=1
SY R=490.244
SY XL=156.8729
GW	1	1	0	0	0	0	0	H	0.001
GW	2	50	0	0	H	L	0	H	0.001
GW	3	1	L	0	0	L	0	H	0.001
GE	1
LD	5	0	0	0	58000000
LD	0	3	1	0	R
LD	4	2	1	50	0	XL
GN	2	0	0	0	17	0.015
EK
EX	0	1	1	0	1	0	0
FR,0,1,0,0,7.1
PQ -1
PT -1
RP,0,36,73,1000,-89,0,5,5
