CM 
CM forw:-66, 180 ; back:-66, 360
CE
SY freq=7.1
SY L=100
SY H=1
SY R=560
GW	1	1	0	0	0	0	0	H	0.001
GW	2	100	0	0	H	L	0	H	0.001
GW	3	1	L	0	0	L	0	H	0.001
GE	1
LD	5	0	0	0	58000000
LD	0	3	1	0	R
GN	2	0	0	0	17	0.015
EK
EX	0	1	1	0	1	0	0
FR,0,1,0,0,7.1
PQ -1
PT -1
RP,0,36,73,1000,-86,0,5,5
