CM 
CM forw:-72, 0 ; back:-72, 180
CE
SY freq=3.525
SY L=7
SY D=15
SY const=0.842435
SY tau=0.5*D*const
SY ph=tau*freq*360/300
GW	1	11	D/2	0	0	D/2	0	L	0.01
GW	2	11	0	D/2	0	0	D/2	L	0.01
GW	3	11	0	-D/2	0	0	-D/2	L	0.01
GW	4	11	-D/2	0	0	-D/2	0	L	0.01
GE	1
LD	5	0	0	0	37700000
GN	2	0	0	0	17	0.015
EK
EX	0	1	1	0	1	0	0
EX	0	2	1	0	cos(ph-180)	sin(ph-180)	0
EX	0	3	1	0	cos(ph-180)	sin(ph-180)	0
EX	0	4	1	0	cos(2*ph)	sin(2*ph)	0
FR,0,1,0,0,3.525
PQ -1
PT -1
RP,0,36,73,1000,-87,0,5,5
