CM 
CM forw: 62, 0 ; back: 62, 180
CE
SY freq=7.1
SY W=2
SY L=5
SY R1=857
SY H=1.5
GW	1	5	L/2	0	H-W/2	L/2	0	H+W/2	0.001
GW	2	5	-L/2	0	H-W/2	-L/2	0	H+W/2	0.001
GW	3	7	L/2	0	H+W/2	0	0.05	H	0.001
GW	3	7	L/2	0	H-W/2	0	-0.05	H	0.001
GW	3	7	0	0.05	H	-L/2	0	H-W/2	0.001
GW	3	7	0	-0.05	H	-L/2	0	H+W/2	0.001
GE	1
LD	0	2	3	0	R1
LD	5	0	0	0	58000000
GN	2	0	0	0	17	0.015
EK
EX	0	1	3	0	1	0	0
FR,0,1,0,0,7.1
PQ -1
PT -1
RP,0,36,73,1000,-88,0,5,5
